************************************************************************
*                                                                      *
*           C/GMOS10QA HSPICE LEVEL-39 FET Model Library               *
*                                                                      *
*                           Version 6.1                                *
*                           May 12, 1997                               *
*                                                                      *
*                       Hewlett-Packard Co.                            *
*                 Integrated Circuit Business Division                 *
*                                                                      *
*                    Proprietary Information                           *
*                                                                      *
*  This file and the information it contains may not be used outside   *
*  of Hewlett-Packard Co. without first executing a Confidential       *
*  Disclosure Agreement.                                               *
*                                                                      *
************************************************************************
*                                                                      *
* NOM Case                                                             *
*                                                                      *
************************************************************************
*
*
.lib nom
*
.MODEL NMOS.0P5B0P4 NMOS LEVEL=39 SPICE3=1 CAPOP=39 
+ LMIN=0.4E-6 LMAX=0.43E-6
+ WMIN=0.5E-6 WMAX=0.6E-6
+ LREF=0.4E-6 WREF=0.5E-6
+ TREF=25
+ AI0=2e-15 LAI0=0 WAI0=0 PAI0=0
+ AIB=0 LAIB=0 WAIB=0 PAIB=0
+ BI0=3.291e-14 LBI0=0 WBI0=0 PBI0=0
+ BIB=0 LBIB=0 WBIB=0 PBIB=0
+ CGBO=0
+ CGDO=398.0e-12 
+ CGSO=398.0e-12 
+ LD=2.900e-08
+ LDAC=5.617e-08
+ XW=1.120e-07
+ ETA0=0.01226 LETA0=0.0176163 WETA0=0.00196085 PETA0=0.00480455
+ ETAB=-0.004957 LETAB=-0.00379552 WETAB=0 PETAB=0
+ FEX=-1.409 LFEX=0 WFEX=0 PFEX=0
+ VFB=-0.4362 LVFB=0.19338 WVFB=-0.0675403 PVFB=-0.0720682
+ K1=0.4373 LK1=-0.201438 WK1=-0.000435744 PK1=0.0240227
+ K2=0 LK2=0 WK2=0 PK2=0
+ MU0=386.8 LMU0=3.39264 WMU0=0 PMU0=1.8479
+ MU0B=10.64 LMU0B=0 WMU0B=4.96748 PMU0B=0
+ MU20=0.6218 LMU20=0.00084816 WMU20=-0.0836628 PMU20=-0.00554371
+ MU2B=0.02296 LMU2B=-0.000975384 WMU2B=0.0174733 PMU2B=0.00018479
+ MU2G=0.129 LMU2G=-0.0284134 WMU2G=0.0762552 PMU2G=0.0129353
+ MU30=0 LMU30=0 WMU30=0 PMU30=0
+ MU3B=0 LMU3B=0 WMU3B=0 PMU3B=0
+ MU3G=0 LMU3G=0 WMU3G=0 PMU3G=0
+ MU40=0 LMU40=0 WMU40=0 PMU40=0
+ MU4B=0 LMU4B=0 WMU4B=0 PMU4B=0
+ MU4G=0 LMU4G=0 WMU4G=0 PMU4G=0
+ MUS0=1420 LMUS0=576.749 WMUS0=43.5744 PMUS0=36.9581
+ MUSB=-4.43e-14 LMUSB=-9.58421e-15 WMUSB=0 PMUSB=0
+ N0=1.166 LN0=0 WN0=-0.0610042 PN0=4.10317e-15
+ NB=0.2446 LNB=0 WNB=-0.0122008 PNB=-5.12896e-16
+ ND=0 LND=0 WND=0 PND=0
+ PHI=0.75 LPHI=0 WPHI=0 PPHI=0
+ ACM=3 HDIF=1.0e-6 RSH=3.000e+02
+ TRS=0.000e+00 TRD=0.000e+00
+ TLEV=1 TLEVC=0 TCV=0.001 LTCV=0 WTCV=0 PTCV=0
+ TOX=0.0076
+ U10=5.289 LU10=2.9516 WU10=0 PU10=0
+ U1B=-0.09896 LU1B=-0.148894 WU1B=-0.0518971 PU1B=-0.10145
+ U1D=0 LU1D=0 WU1D=0 PU1D=0
+ UA0=1.003e-15 LUA0=0 WUA0=-1.30723e-17 PUA0=3.64435e-30
+ UAB=0 LUAB=0 WUAB=0 PUAB=0
+ UB0=0.01583 LUB0=-0.000593712 WUB0=-0.00126366 PUB0=0.00018479
+ UBB=-0.002203 LUBB=0 WUBB=0.00347288 PUBB=0
+ BEX=-1.802 LBEX=0 WBEX=0.2048 PBEX=4.10317e-15
+ VBB=-3.3
+ VDD=3.3
+ VGG=3.3
+ VGHIGH=0.2394 LVGHIGH=-0.00042408 WVGHIGH=0.0409599 PVGHIGH=0.0018479
+ VGLOW=-0.22 LVGLOW=0 WVGLOW=0 PVGLOW=0
+ VOF0=2.813 LVOF0=0 WVOF0=0 PVOF0=0
+ VOFB=-0.1338 LVOFB=0 WVOFB=0 PVOFB=0
+ VOFD=0 LVOFD=0 WVOFD=0 PVOFD=0
+ CJ=908.4e-6 
+ CJGATE=145.1e-12 
+ CJSW=189.1e-12 
+ MJ=375.0e-3 
+ MJSW=200.3e-3 
+ PB=809.1e-3 
+ PHP=500.0e-3 
+ JS=1e-6
*
*
.MODEL NMOS.0P5B0P43 NMOS LEVEL=39 SPICE3=1 CAPOP=39 
+ LMIN=0.43E-6 LMAX=0.45E-6
+ WMIN=0.5E-6 WMAX=0.6E-6
+ LREF=0.43E-6 WREF=0.5E-6
+ TREF=25
+ AI0=2e-15 LAI0=0 WAI0=0 PAI0=0
+ AIB=0 LAIB=0 WAIB=0 PAIB=0
+ BI0=3.291e-14 LBI0=0 WBI0=0 PBI0=0
+ BIB=0 LBIB=0 WBIB=0 PBIB=0
+ CGBO=0
+ CGDO=398.0e-12 
+ CGSO=398.0e-12 
+ LD=2.900e-08
+ LDAC=5.617e-08
+ XW=1.120e-07
+ ETA0=0.008106 LETA0=0.009114 WETA0=0.000827914 PETA0=0.00254168
+ ETAB=-0.004062 LETAB=-0.00467366 WETAB=0 PETAB=0
+ FEX=-1.409 LFEX=0 WFEX=0 PFEX=0
+ VFB=-0.4818 LVFB=0.151657 WVFB=-0.0505463 PVFB=-0.0540106
+ K1=0.4848 LK1=-0.145095 WK1=-0.00610042 PK1=0.0190626
+ K2=0 LK2=0 WK2=0 PK2=0
+ MU0=386 LMU0=3.6456 WMU0=-0.435744 PMU0=0
+ MU0B=10.64 LMU0B=0.072912 WMU0B=4.96748 PMU0B=0.31771
+ MU20=0.6216 LMU20=0.00145824 WMU20=-0.0823556 PMU20=-0.0031771
+ MU2B=0.02319 LMU2B=-0.0218736 WMU2B=0.0174298 PMU2B=0.00889587
+ MU2G=0.1357 LMU2G=0 WMU2G=0.073205 PMU2G=0
+ MU30=0 LMU30=0 WMU30=0 PMU30=0
+ MU3B=0 LMU3B=0 WMU3B=0 PMU3B=0
+ MU3G=0 LMU3G=0 WMU3G=0 PMU3G=0
+ MU40=0 LMU40=0 WMU40=0 PMU40=0
+ MU4B=0 LMU4B=0 WMU4B=0 PMU4B=0
+ MU4G=0 LMU4G=0 WMU4G=0 PMU4G=0
+ MUS0=1284 LMUS0=160.406 WMUS0=34.8595 PMUS0=-31.771
+ MUSB=-4.204e-14 LMUSB=0 WMUSB=0 PMUSB=0
+ N0=1.166 LN0=0 WN0=-0.0610042 PN0=7.05457e-15
+ NB=0.2446 LNB=0 WNB=-0.0122008 PNB=-8.81821e-16
+ ND=0 LND=0 WND=0 PND=0
+ PHI=0.75 LPHI=0 WPHI=0 PPHI=0
+ ACM=3 HDIF=1.0e-6 RSH=3.000e+02
+ TRS=0.000e+00 TRD=0.000e+00
+ TLEV=1 TLEVC=0 TCV=0.001 LTCV=0 WTCV=0 PTCV=0
+ TOX=0.0076
+ U10=4.593 LU10=2.23111 WU10=0 PU10=-2.82183e-14
+ U1B=-0.06385 LU1B=-0.0991603 WU1B=-0.0279748 PU1B=-0.0673544
+ U1D=0 LU1D=0 WU1D=0 PU1D=0
+ UA0=1.003e-15 LUA0=-2.40391e-05 WUA0=-1.30723e-17 PUA0=-9.53101e-17
+ UAB=0 LUAB=0 WUAB=0 PUAB=0
+ UB0=0.01597 LUB0=-0.00072912 WUB0=-0.00130723 PUB0=-0.00031771
+ UBB=-0.002203 LUBB=0 WUBB=0.00347288 PUBB=0
+ BEX=-1.802 LBEX=0 WBEX=0.2048 PBEX=7.05457e-15
+ VBB=-3.3
+ VDD=3.3
+ VGG=3.3
+ VGHIGH=0.2395 LVGHIGH=-0.0116659 WVGHIGH=0.0405242 PVGHIGH=0.0476564
+ VGLOW=-0.22 LVGLOW=0 WVGLOW=0 PVGLOW=0
+ VOF0=2.813 LVOF0=0 WVOF0=0 PVOF0=0
+ VOFB=-0.1338 LVOFB=0 WVOFB=0 PVOFB=0
+ VOFD=0 LVOFD=0 WVOFD=0 PVOFD=0
+ CJ=908.4e-6 
+ CJGATE=145.1e-12 
+ CJSW=189.1e-12 
+ MJ=375.0e-3 
+ MJSW=200.3e-3 
+ PB=809.1e-3 
+ PHP=500.0e-3 
+ JS=1e-6
*
*
.MODEL NMOS.0P5B0P45 NMOS LEVEL=39 SPICE3=1 CAPOP=39 
+ LMIN=0.45E-6 LMAX=0.5E-6
+ WMIN=0.5E-6 WMAX=0.6E-6
+ LREF=0.45E-6 WREF=0.5E-6
+ TREF=25
+ AI0=2e-15 LAI0=0 WAI0=0 PAI0=0
+ AIB=0 LAIB=0 WAIB=0 PAIB=0
+ BI0=3.291e-14 LBI0=0 WBI0=0 PBI0=0
+ BIB=0 LBIB=0 WBIB=0 PBIB=0
+ CGBO=0
+ CGDO=398.0e-12 
+ CGSO=398.0e-12 
+ LD=2.900e-08
+ LDAC=5.617e-08
+ XW=1.120e-07
+ ETA0=0.006856 LETA0=0.0065875 WETA0=0.000479318 PETA0=0.00182707
+ ETAB=-0.003421 LETAB=-0.00232174 WETAB=0 PETAB=-6.54847e-18
+ FEX=-1.409 LFEX=0.0103958 WFEX=0 PFEX=3.35282e-15
+ VFB=-0.5026 LVFB=0.110542 WVFB=-0.0431387 PVFB=-0.0422793
+ K1=0.5047 LK1=-0.135146 WK1=-0.00871488 PK1=0.0150997
+ K2=0 LK2=0 WK2=0 PK2=0
+ MU0=385.5 LMU0=4.50486 WMU0=-0.435744 PMU0=1.50997
+ MU0B=10.63 LMU0B=0 WMU0B=4.92391 PMU0B=0.0452992
+ MU20=0.6214 LMU20=0.00138611 WMU20=-0.0819199 PMU20=-0.0060399
+ MU2B=0.02619 LMU2B=-0.00412368 WMU2B=0.0162097 PMU2B=0.00166097
+ MU2G=0.1357 LMU2G=0 WMU2G=0.073205 PMU2G=0
+ MU30=0 LMU30=0 WMU30=0 PMU30=0
+ MU3B=0 LMU3B=0 WMU3B=0 PMU3B=0
+ MU3G=0 LMU3G=0 WMU3G=0 PMU3G=0
+ MU40=0 LMU40=0 WMU40=0 PMU40=0
+ MU4B=0 LMU4B=0 WMU4B=0 PMU4B=0
+ MU4G=0 LMU4G=0 WMU4G=0 PMU4G=0
+ MUS0=1262 LMUS0=183.66 WMUS0=39.217 PMUS0=15.0997
+ MUSB=-4.204e-14 LMUSB=0 WMUSB=0 PMUSB=0
+ N0=1.166 LN0=-0.00346528 WN0=-0.0610042 PN0=-0.0150997
+ NB=0.2446 LNB=-0.000346528 WNB=-0.0122008 PNB=-0.00150997
+ ND=0 LND=0 WND=0 PND=0
+ PHI=0.75 LPHI=0 WPHI=0 PPHI=0
+ ACM=3 HDIF=1.0e-6 RSH=3.000e+02
+ TRS=0.000e+00 TRD=0.000e+00
+ TLEV=1 TLEVC=0 TCV=0.001 LTCV=0 WTCV=0 PTCV=0
+ TOX=0.0076
+ U10=4.287 LU10=1.62868 WU10=0 PU10=-1.34113e-14
+ U1B=-0.05025 LU1B=-0.0231481 WU1B=-0.018737 PU1B=-0.0157037
+ U1D=0 LU1D=0 WU1D=0 PU1D=0
+ UA0=3.297e-06 LUA0=-0.000371835 WUA0=0 PUA0=8.95299e-20
+ UAB=0 LUAB=0 WUAB=0 PUAB=0
+ UB0=0.01607 LUB0=-0.000831667 WUB0=-0.00126366 PUB0=5.23878e-17
+ UBB=-0.002203 LUBB=0 WUBB=0.00347288 PUBB=0
+ BEX=-1.802 LBEX=0 WBEX=0.2048 PBEX=3.35282e-15
+ VBB=-3.3
+ VDD=3.3
+ VGG=3.3
+ VGHIGH=0.2411 LVGHIGH=0 WVGHIGH=0.033988 PVGHIGH=4.19102e-16
+ VGLOW=-0.22 LVGLOW=0 WVGLOW=0 PVGLOW=0
+ VOF0=2.813 LVOF0=0 WVOF0=0 PVOF0=0
+ VOFB=-0.1338 LVOFB=-0.00277222 WVOFB=0 PVOFB=-4.19102e-16
+ VOFD=0 LVOFD=0 WVOFD=0 PVOFD=0
+ CJ=908.4e-6 
+ CJGATE=145.1e-12 
+ CJSW=189.1e-12 
+ MJ=375.0e-3 
+ MJSW=200.3e-3 
+ PB=809.1e-3 
+ PHP=500.0e-3 
+ JS=1e-6
*
*
.MODEL NMOS.0P5B0P5 NMOS LEVEL=39 SPICE3=1 CAPOP=39 
+ LMIN=0.5E-6 LMAX=0.6E-6
+ WMIN=0.5E-6 WMAX=0.6E-6
+ LREF=0.5E-6 WREF=0.5E-6
+ TREF=25
+ AI0=2e-15 LAI0=0 WAI0=0 PAI0=0
+ AIB=0 LAIB=0 WAIB=0 PAIB=0
+ BI0=3.291e-14 LBI0=0 WBI0=0 PBI0=0
+ BIB=0 LBIB=0 WBIB=0 PBIB=0
+ CGBO=0
+ CGDO=398.0e-12 
+ CGSO=398.0e-12 
+ LD=2.900e-08
+ LDAC=5.617e-08
+ XW=1.120e-07
+ ETA0=0.004955 LETA0=0.00528478 WETA0=-4.79318e-05 PETA0=0.00146144
+ ETAB=-0.002751 LETAB=-0.00317901 WETAB=0 PETAB=0
+ FEX=-1.412 LFEX=0.371324 WFEX=0 PFEX=-2.31789e-15
+ VFB=-0.5345 LVFB=0.201473 WVFB=-0.0309378 PVFB=-0.0762037
+ K1=0.5437 LK1=-0.0876804 WK1=-0.0130723 PK1=0.0114827
+ K2=0 LK2=0 WK2=0 PK2=0
+ MU0=384.2 LMU0=5.74954 WMU0=-0.871488 PMU0=2.08777
+ MU0B=10.63 LMU0B=-0.215608 WMU0B=4.91083 PMU0B=1.00213
+ MU20=0.621 LMU20=0.00215608 WMU20=-0.0801769 PMU20=-0.0073072
+ MU2B=0.02738 LMU2B=-2.39564e-05 WMU2B=0.0157304 PMU2B=-3.62171e-17
+ MU2G=0.1357 LMU2G=0 WMU2G=0.073205 PMU2G=0
+ MU30=0 LMU30=0 WMU30=0 PMU30=0
+ MU3B=0 LMU3B=0 WMU3B=0 PMU3B=0
+ MU3G=0 LMU3G=0 WMU3G=0 PMU3G=0
+ MU40=0 LMU40=0 WMU40=0 PMU40=0
+ MU4B=0 LMU4B=0 WMU4B=0 PMU4B=0
+ MU4G=0 LMU4G=0 WMU4G=0 PMU4G=0
+ MUS0=1209 LMUS0=1144.16 WMUS0=34.8595 PMUS0=40.7115
+ MUSB=-4.204e-14 LMUSB=-2.87477e-16 WMUSB=0 PMUSB=0
+ N0=1.167 LN0=0 WN0=-0.0566467 PN0=0.0104389
+ NB=0.2447 LNB=0 WNB=-0.0117651 PNB=-2.89737e-16
+ ND=0 LND=0 WND=0 PND=0
+ PHI=0.75 LPHI=0 WPHI=0 PPHI=0
+ ACM=3 HDIF=1.0e-6 RSH=3.000e+02
+ TRS=0.000e+00 TRD=0.000e+00
+ TLEV=1 TLEVC=0 TCV=0.001 LTCV=0 WTCV=0 PTCV=0
+ TOX=0.0076
+ U10=3.817 LU10=4.79847 WU10=0 PU10=0
+ U1B=-0.04357 LU1B=-0.0116189 WU1B=-0.0142053 PU1B=-0.00793353
+ U1D=0 LU1D=0 WU1D=0 PU1D=0
+ UA0=0.0001106 LUA0=-4.2882e-05 WUA0=0 PUA0=0
+ UAB=0 LUAB=0 WUAB=0 PUAB=0
+ UB0=0.01631 LUB0=-0.00114991 WUB0=-0.00126366 PUB0=-0.000104389
+ UBB=-0.002203 LUBB=0 WUBB=0.00347288 PUBB=0
+ BEX=-1.802 LBEX=0 WBEX=0.2048 PBEX=2.31789e-15
+ VBB=-3.3
+ VDD=3.3
+ VGG=3.3
+ VGHIGH=0.2411 LVGHIGH=0 WVGHIGH=0.033988 PVGHIGH=2.89737e-16
+ VGLOW=-0.22 LVGLOW=0 WVGLOW=0 PVGLOW=0
+ VOF0=2.813 LVOF0=0 WVOF0=0 PVOF0=0
+ VOFB=-0.133 LVOFB=-0.117865 WVOFB=0 PVOFB=0
+ VOFD=0 LVOFD=0 WVOFD=0 PVOFD=0
+ CJ=908.4e-6 
+ CJGATE=145.1e-12 
+ CJSW=189.1e-12 
+ MJ=375.0e-3 
+ MJSW=200.3e-3 
+ PB=809.1e-3 
+ PHP=500.0e-3 
+ JS=1e-6
*
*
.MODEL NMOS.0P5B0P6 NMOS LEVEL=39 SPICE3=1 CAPOP=39 
+ LMIN=0.6E-6 LMAX=0.8E-6
+ WMIN=0.5E-6 WMAX=0.6E-6
+ LREF=0.6E-6 WREF=0.5E-6
+ TREF=25
+ AI0=2e-15 LAI0=0 WAI0=0 PAI0=0
+ AIB=0 LAIB=0 WAIB=0 PAIB=0
+ BI0=3.291e-14 LBI0=0 WBI0=0 PBI0=0
+ BIB=0 LBIB=0 WBIB=0 PBIB=0
+ CGBO=0
+ CGDO=398.0e-12 
+ CGSO=398.0e-12 
+ LD=2.900e-08
+ LDAC=5.617e-08
+ XW=1.120e-07
+ ETA0=0.002749 LETA0=3.01623e-05 WETA0=-0.000657973 PETA0=1.75241e-05
+ ETAB=-0.001424 LETAB=-0.00266233 WETAB=0 PETAB=0
+ FEX=-1.567 LFEX=0.158855 WFEX=0 PFEX=-1.94556e-15
+ VFB=-0.6186 LVFB=0.076009 WVFB=0.000871488 PVFB=-0.0280385
+ K1=0.5803 LK1=-0.0207114 WK1=-0.0178655 PK1=0.00262861
+ K2=0 LK2=0 WK2=0 PK2=0
+ MU0=381.8 LMU0=10.0541 WMU0=-1.74298 PMU0=3.50481
+ MU0B=10.72 LMU0B=-0.703787 WMU0B=4.49252 PMU0B=3.25071
+ MU20=0.6201 LMU20=0.00321731 WMU20=-0.0771267 PMU20=-0.013143
+ MU2B=0.02739 LMU2B=-0.00160866 WMU2B=0.0157304 PMU2B=0.000700962
+ MU2G=0.1357 LMU2G=0 WMU2G=0.073205 PMU2G=0
+ MU30=0 LMU30=0 WMU30=0 PMU30=0
+ MU3B=0 LMU3B=0 WMU3B=0 PMU3B=0
+ MU3G=0 LMU3G=0 WMU3G=0 PMU3G=0
+ MU40=0 LMU40=0 WMU40=0 PMU40=0
+ MU4B=0 LMU4B=0 WMU4B=0 PMU4B=0
+ MU4G=0 LMU4G=0 WMU4G=0 PMU4G=0
+ MUS0=731.4 LMUS0=603.045 WMUS0=17.8655 PMUS0=21.9051
+ MUSB=-4.192e-14 LMUSB=-2.79504e-14 WMUSB=0 PMUSB=0
+ N0=1.167 LN0=-0.00402164 WN0=-0.0610042 PN0=-0.00876203
+ NB=0.2447 LNB=-0.000201082 WNB=-0.0117651 PNB=-0.000876203
+ ND=0 LND=0 WND=0 PND=0
+ PHI=0.75 LPHI=0 WPHI=0 PPHI=0
+ ACM=3 HDIF=1.0e-6 RSH=3.000e+02
+ TRS=0.000e+00 TRD=0.000e+00
+ TLEV=1 TLEVC=0 TCV=0.001 LTCV=0 WTCV=0 PTCV=0
+ TOX=0.0076
+ U10=1.814 LU10=2.31325 WU10=0 PU10=-1.94556e-15
+ U1B=-0.03872 LU1B=0 WU1B=-0.0108936 PU1B=-6.07988e-17
+ U1D=0 LU1D=0 WU1D=0 PU1D=0
+ UA0=0.0001285 LUA0=-0.00012447 WUA0=0 PUA0=0
+ UAB=0 LUAB=0 WUAB=0 PUAB=0
+ UB0=0.01679 LUB0=-0.00191028 WUB0=-0.00122008 PUB0=-8.76203e-05
+ UBB=-0.002203 LUBB=0 WUBB=0.00347288 PUBB=0
+ BEX=-1.802 LBEX=0 WBEX=0.2048 PBEX=1.94556e-15
+ VBB=-3.3
+ VDD=3.3
+ VGG=3.3
+ VGHIGH=0.2411 LVGHIGH=0 WVGHIGH=0.033988 PVGHIGH=2.43195e-16
+ VGLOW=-0.22 LVGLOW=0 WVGLOW=0 PVGLOW=0
+ VOF0=2.813 LVOF0=0 WVOF0=0 PVOF0=0
+ VOFB=-0.0838 LVOFB=0 WVOFB=0 PVOFB=0
+ VOFD=0 LVOFD=0 WVOFD=0 PVOFD=0
+ CJ=908.4e-6 
+ CJGATE=145.1e-12 
+ CJSW=189.1e-12 
+ MJ=375.0e-3 
+ MJSW=200.3e-3 
+ PB=809.1e-3 
+ PHP=500.0e-3 
+ JS=1e-6
*
*
.MODEL NMOS.0P5B0P8 NMOS LEVEL=39 SPICE3=1 CAPOP=39 
+ LMIN=0.8E-6 LMAX=1.0E-6
+ WMIN=0.5E-6 WMAX=0.6E-6
+ LREF=0.8E-6 WREF=0.5E-6
+ TREF=25
+ AI0=2e-15 LAI0=0 WAI0=0 PAI0=0
+ AIB=0 LAIB=0 WAIB=0 PAIB=0
+ BI0=3.291e-14 LBI0=0 WBI0=0 PBI0=0
+ BIB=0 LBIB=0 WBIB=0 PBIB=0
+ CGBO=0
+ CGDO=398.0e-12 
+ CGSO=398.0e-12 
+ LD=2.900e-08
+ LDAC=5.617e-08
+ XW=1.120e-07
+ ETA0=0.002734 LETA0=0.00592023 WETA0=-0.000666688 PETA0=0.00162945
+ ETAB=-0.0001 LETAB=0 WETAB=0 PETAB=0
+ FEX=-1.646 LFEX=0.38443 WFEX=0 PFEX=-3.3814e-15
+ VFB=-0.6564 LVFB=0.048578 WVFB=0.0148153 PVFB=-0.0182742
+ K1=0.5906 LK1=0 WK1=-0.0191727 PK1=0
+ K2=0 LK2=0 WK2=0 PK2=0
+ MU0=376.8 LMU0=17.1246 WMU0=-3.48595 PMU0=4.56854
+ MU0B=11.07 LMU0B=0.0698964 WMU0B=2.87591 PMU0B=0.304569
+ MU20=0.6185 LMU20=0.00594119 WMU20=-0.0705905 PMU20=-0.0213199
+ MU2B=0.02819 LMU2B=-0.0100301 WMU2B=0.0153818 PMU2B=0.0039594
+ MU2G=0.1357 LMU2G=0 WMU2G=0.073205 PMU2G=0
+ MU30=0 LMU30=0 WMU30=0 PMU30=0
+ MU3B=0 LMU3B=0 WMU3B=0 PMU3B=0
+ MU3G=0 LMU3G=0 WMU3G=0 PMU3G=0
+ MU40=0 LMU40=0 WMU40=0 PMU40=0
+ MU4B=0 LMU4B=0 WMU4B=0 PMU4B=0
+ MU4G=0 LMU4G=0 WMU4G=0 PMU4G=0
+ MUS0=431.5 LMUS0=192.565 WMUS0=6.9719 PMUS0=7.61423
+ MUSB=-2.802e-14 LMUSB=-4.72849e-14 WMUSB=0 PMUSB=0
+ N0=1.169 LN0=-0.00349482 WN0=-0.0566467 PN0=6.7628e-15
+ NB=0.2448 LNB=-0.000698964 WNB=-0.0113293 PNB=-0.00304569
+ ND=0 LND=0 WND=0 PND=0
+ PHI=0.75 LPHI=0 WPHI=0 PPHI=0
+ ACM=3 HDIF=1.0e-6 RSH=3.000e+02
+ TRS=0.000e+00 TRD=0.000e+00
+ TLEV=1 TLEVC=0 TCV=0.001 LTCV=0 WTCV=0 PTCV=0
+ TOX=0.0076
+ U10=0.6636 LU10=0.834214 WU10=0 PU10=0
+ U1B=-0.03872 LU1B=-0.000209689 WU1B=-0.0108936 PU1B=-0.000152285
+ U1D=0 LU1D=0 WU1D=0 PU1D=0
+ UA0=0.0001904 LUA0=0 WUA0=0 PUA0=0
+ UAB=0 LUAB=0 WUAB=0 PUAB=0
+ UB0=0.01774 LUB0=-0.00335503 WUB0=-0.00117651 PUB0=-0.000152285
+ UBB=-0.002203 LUBB=0 WUBB=0.00347288 PUBB=0
+ BEX=-1.802 LBEX=0 WBEX=0.2048 PBEX=0.0152285
+ VBB=-3.3
+ VDD=3.3
+ VGG=3.3
+ VGHIGH=0.2411 LVGHIGH=0 WVGHIGH=0.033988 PVGHIGH=4.22675e-16
+ VGLOW=-0.22 LVGLOW=0 WVGLOW=0 PVGLOW=0
+ VOF0=2.813 LVOF0=0 WVOF0=0 PVOF0=0
+ VOFB=-0.0838 LVOFB=-0.000104845 WVOFB=0 PVOFB=0
+ VOFD=0 LVOFD=0 WVOFD=0 PVOFD=0
+ CJ=908.4e-6 
+ CJGATE=145.1e-12 
+ CJSW=189.1e-12 
+ MJ=375.0e-3 
+ MJSW=200.3e-3 
+ PB=809.1e-3 
+ PHP=500.0e-3 
+ JS=1e-6
*
*
.MODEL NMOS.0P5B1P0 NMOS LEVEL=39 SPICE3=1 CAPOP=39 
+ LMIN=1.0E-6 LMAX=1.4E-6
+ WMIN=0.5E-6 WMAX=0.6E-6
+ LREF=1.0E-6 WREF=0.5E-6
+ TREF=25
+ AI0=2e-15 LAI0=0 WAI0=0 PAI0=0
+ AIB=0 LAIB=0 WAIB=0 PAIB=0
+ BI0=3.291e-14 LBI0=0 WBI0=0 PBI0=0
+ BIB=0 LBIB=0 WBIB=0 PBIB=0
+ CGBO=0
+ CGDO=398.0e-12 
+ CGSO=398.0e-12 
+ LD=2.900e-08
+ LDAC=5.617e-08
+ XW=1.120e-07
+ ETA0=0.00104 LETA0=3.16041e-06 WETA0=-0.00113293 PETA0=0
+ ETAB=-0.0001 LETAB=0 WETAB=0 PETAB=0
+ FEX=-1.756 LFEX=0.641563 WFEX=0 PFEX=3.05784e-15
+ VFB=-0.6703 LVFB=0.0730055 WVFB=0.0200442 PVFB=-0.0261655
+ K1=0.5906 LK1=0 WK1=-0.0191727 PK1=0
+ K2=0 LK2=0 WK2=0 PK2=0
+ MU0=371.9 LMU0=31.6041 WMU0=-4.79318 PMU0=11.017
+ MU0B=11.05 LMU0B=0.158021 WMU0B=2.78876 PMU0B=0.688565
+ MU20=0.6168 LMU20=0.0104294 WMU20=-0.0644901 PMU20=-0.0413139
+ MU2B=0.03106 LMU2B=-0.0286649 WMU2B=0.0142488 PMU2B=0.0115679
+ MU2G=0.1357 LMU2G=-0.00126416 WMU2G=0.073205 PMU2G=-0.00137713
+ MU30=0 LMU30=0 WMU30=0 PMU30=0
+ MU3B=0 LMU3B=0 WMU3B=0 PMU3B=0
+ MU3G=0 LMU3G=0 WMU3G=0 PMU3G=0
+ MU40=0 LMU40=0 WMU40=0 PMU40=0
+ MU4B=0 LMU4B=0 WMU4B=0 PMU4B=0
+ MU4G=0 LMU4G=0 WMU4G=0 PMU4G=0
+ MUS0=376.4 LMUS0=186.78 WMUS0=4.79318 PMUS0=9.63991
+ MUSB=-1.449e-14 LMUSB=-3.31843e-15 WMUSB=0 PMUSB=0
+ N0=1.17 LN0=-0.00948123 WN0=-0.0566467 PN0=-0.0275426
+ NB=0.245 LNB=-0.000632082 WNB=-0.0104579 PNB=-0.00275426
+ ND=0 LND=0 WND=0 PND=0
+ PHI=0.75 LPHI=0 WPHI=0 PPHI=0
+ ACM=3 HDIF=1.0e-6 RSH=3.000e+02
+ TRS=0.000e+00 TRD=0.000e+00
+ TLEV=1 TLEVC=0 TCV=0.001 LTCV=0 WTCV=0 PTCV=0
+ TOX=0.0076
+ U10=0.4249 LU10=0.729107 WU10=0 PU10=-7.64461e-16
+ U1B=-0.03866 LU1B=-6.32082e-05 WU1B=-0.01085 PU1B=0
+ U1D=0 LU1D=0 WU1D=0 PU1D=0
+ UA0=0.0001904 LUA0=-1.35898e-05 WUA0=0 PUA0=0
+ UAB=0 LUAB=0 WUAB=0 PUAB=0
+ UB0=0.0187 LUB0=-0.00606799 WUB0=-0.00113293 PUB0=-0.000413139
+ UBB=-0.002203 LUBB=0 WUBB=0.00347288 PUBB=0
+ BEX=-1.802 LBEX=-0.426655 WBEX=0.200442 PBEX=0.0275426
+ VBB=-3.3
+ VDD=3.3
+ VGG=3.3
+ VGHIGH=0.2411 LVGHIGH=0 WVGHIGH=0.033988 PVGHIGH=3.8223e-16
+ VGLOW=-0.22 LVGLOW=0 WVGLOW=0 PVGLOW=0
+ VOF0=2.813 LVOF0=0.00316041 WVOF0=0 PVOF0=0
+ VOFB=-0.08377 LVOFB=-0.0220597 WVOFB=0 PVOFB=1.91115e-16
+ VOFD=0 LVOFD=0 WVOFD=0 PVOFD=0
+ CJ=908.4e-6 
+ CJGATE=145.1e-12 
+ CJSW=189.1e-12 
+ MJ=375.0e-3 
+ MJSW=200.3e-3 
+ PB=809.1e-3 
+ PHP=500.0e-3 
+ JS=1e-6
*
*
.MODEL NMOS.0P5B1P4 NMOS LEVEL=39 SPICE3=1 CAPOP=39 
+ LMIN=1.4E-6 LMAX=3.0E-6
+ WMIN=0.5E-6 WMAX=0.6E-6
+ LREF=1.4E-6 WREF=0.5E-6
+ TREF=25
+ AI0=2e-15 LAI0=0 WAI0=0 PAI0=0
+ AIB=0 LAIB=0 WAIB=0 PAIB=0
+ BI0=3.291e-14 LBI0=0 WBI0=0 PBI0=0
+ BIB=0 LBIB=0 WBIB=0 PBIB=0
+ CGBO=0
+ CGDO=398.0e-12 
+ CGSO=398.0e-12 
+ LD=2.900e-08
+ LDAC=5.617e-08
+ XW=1.120e-07
+ ETA0=0.001039 LETA0=0.000788646 WETA0=-0.00113293 PETA0=0.0002215
+ ETAB=-0.0001 LETAB=0 WETAB=0 PETAB=0
+ FEX=-1.959 LFEX=0 WFEX=0 PFEX=0
+ VFB=-0.6934 LVFB=0.0523132 WVFB=0.0283234 PVFB=-0.0215049
+ K1=0.5906 LK1=-0.00024676 WK1=-0.0191727 PK1=0
+ K2=0 LK2=0 WK2=0 PK2=0
+ MU0=361.9 LMU0=97.9638 WMU0=-8.27914 PMU0=32.2573
+ MU0B=11 LMU0B=0.24676 WMU0B=2.57089 PMU0B=3.44078
+ MU20=0.6135 LMU20=0.0330659 WMU20=-0.0514178 PMU20=-0.124728
+ MU2B=0.04013 LMU2B=-0.0411349 WMU2B=0.0105886 PMU2B=0.0164512
+ MU2G=0.1361 LMU2G=-0.41357 WMU2G=0.0736407 PMU2G=0.181716
+ MU30=0 LMU30=0 WMU30=0 PMU30=0
+ MU3B=0 LMU3B=0 WMU3B=0 PMU3B=0
+ MU3G=0 LMU3G=0 WMU3G=0 PMU3G=0
+ MU40=0 LMU40=0 WMU40=0 PMU40=0
+ MU4B=0 LMU4B=0 WMU4B=0 PMU4B=0
+ MU4G=0 LMU4G=0 WMU4G=0 PMU4G=0
+ MUS0=317.3 LMUS0=161.628 WMUS0=1.74298 PMUS0=4.30097
+ MUSB=-1.344e-14 LMUSB=-3.0697e-14 WMUSB=0 PMUSB=1.69643e-29
+ N0=1.173 LN0=-0.0296112 WN0=-0.0479318 PN0=-0.0537621
+ NB=0.2452 LNB=-0.0024676 WNB=-0.00958637 PNB=-0.0107524
+ ND=0 LND=0 WND=0 PND=0
+ PHI=0.75 LPHI=0 WPHI=0 PPHI=0
+ ACM=3 HDIF=1.0e-6 RSH=3.000e+02
+ TRS=0.000e+00 TRD=0.000e+00
+ TLEV=1 TLEVC=0 TCV=0.001 LTCV=0 WTCV=0 PTCV=0
+ TOX=0.0076
+ U10=0.1942 LU10=0.412164 WU10=0 PU10=0
+ U1B=-0.03864 LU1B=-0.02628 WU1B=-0.01085 PU1B=-0.0179566
+ U1D=0 LU1D=0 WU1D=0 PU1D=0
+ UA0=0.0001947 LUA0=-4.93521e-07 WUA0=0 PUA0=0
+ UAB=0 LUAB=0 WUAB=0 PUAB=0
+ UB0=0.02062 LUB0=-0.0188772 WUB0=-0.00100221 PUB0=-0.00118277
+ UBB=-0.002203 LUBB=0.00111042 WUBB=0.00347288 PUBB=0.00213973
+ BEX=-1.667 LBEX=-0.505859 WBEX=0.191727 PBEX=0.0430097
+ VBB=-3.3
+ VDD=3.3
+ VGG=3.3
+ VGHIGH=0.2411 LVGHIGH=0 WVGHIGH=0.033988 PVGHIGH=0.00107524
+ VGLOW=-0.22 LVGLOW=0 WVGLOW=0 PVGLOW=0
+ VOF0=2.812 LVOF0=0.984573 WVOF0=0 PVOF0=0
+ VOFB=-0.07679 LVOFB=-0.00737813 WVOFB=0 PVOFB=0
+ VOFD=0 LVOFD=0 WVOFD=0 PVOFD=0
+ CJ=908.4e-6 
+ CJGATE=145.1e-12 
+ CJSW=189.1e-12 
+ MJ=375.0e-3 
+ MJSW=200.3e-3 
+ PB=809.1e-3 
+ PHP=500.0e-3 
+ JS=1e-6
*
*
.MODEL NMOS.0P5B3P0 NMOS LEVEL=39 SPICE3=1 CAPOP=39 
+ LMIN=3.0E-6 LMAX=5.0E-6
+ WMIN=0.5E-6 WMAX=0.6E-6
+ LREF=3.0E-6 WREF=0.5E-6
+ TREF=25
+ AI0=2e-15 LAI0=0 WAI0=0 PAI0=0
+ AIB=0 LAIB=0 WAIB=0 PAIB=0
+ BI0=3.291e-14 LBI0=0 WBI0=0 PBI0=0
+ BIB=0 LBIB=0 WBIB=0 PBIB=0
+ CGBO=0
+ CGDO=398.0e-12 
+ CGSO=398.0e-12 
+ LD=2.900e-08
+ LDAC=5.617e-08
+ XW=1.120e-07
+ ETA0=0.0007194 LETA0=0 WETA0=-0.0012227 PETA0=0
+ ETAB=-0.0001 LETAB=0 WETAB=0 PETAB=0
+ FEX=-1.959 LFEX=0 WFEX=0 PFEX=0
+ VFB=-0.7146 LVFB=0.222452 WVFB=0.0370382 PVFB=-0.079193
+ K1=0.5907 LK1=-0.0697889 WK1=-0.0191727 PK1=0.00950316
+ K2=0 LK2=0 WK2=0 PK2=0
+ MU0=322.2 LMU0=360.576 WMU0=-21.3515 PMU0=123.541
+ MU0B=10.9 LMU0B=1.81742 WMU0B=1.17651 PMU0B=8.55284
+ MU20=0.6001 LMU20=0.120677 WMU20=-0.000871488 PMU20=-0.465655
+ MU2B=0.0568 LMU2B=-0.0725514 WMU2B=0.0039217 PMU2B=0.029143
+ MU2G=0.3037 LMU2G=-0.0021809 WMU2G=0 PMU2G=0
+ MU30=0 LMU30=0 WMU30=0 PMU30=0
+ MU3B=0 LMU3B=0 WMU3B=0 PMU3B=0
+ MU3G=0 LMU3G=0 WMU3G=0 PMU3G=0
+ MU40=0 LMU40=0 WMU40=0 PMU40=0
+ MU4B=0 LMU4B=0 WMU4B=0 PMU4B=0
+ MU4G=0 LMU4G=0 WMU4G=0 PMU4G=0
+ MUS0=251.8 LMUS0=2.1809 WMUS0=0 PMUS0=0
+ MUSB=-1e-15 LMUSB=0 WMUSB=0 PMUSB=0
+ N0=1.185 LN0=-0.109045 WN0=-0.0261446 PN0=-0.190063
+ NB=0.2462 LNB=-0.00872362 WNB=-0.00522893 PNB=-0.0380126
+ ND=0 LND=0 WND=0 PND=0
+ PHI=0.75 LPHI=0 WPHI=0 PPHI=0
+ ACM=3 HDIF=1.0e-6 RSH=3.000e+02
+ TRS=0.000e+00 TRD=0.000e+00
+ TLEV=1 TLEVC=0 TCV=0.001 LTCV=0 WTCV=0 PTCV=0
+ TOX=0.0076
+ U10=0.02717 LU10=0.190517 WU10=0 PU10=0
+ U1B=-0.02799 LU1B=-0.0300238 WU1B=-0.0035731 PU1B=-0.0202734
+ U1D=0 LU1D=0 WU1D=0 PU1D=0
+ UA0=0.0001949 LUA0=-0.000861457 WUA0=0 PUA0=-8.58612e-19
+ UAB=0 LUAB=0 WUAB=0 PUAB=0
+ UB0=0.02827 LUB0=-0.0694255 WUB0=-0.000522893 PUB0=-0.00380126
+ UBB=-0.002653 LUBB=0.00979226 WUBB=0.00260575 PUBB=0.018943
+ BEX=-1.462 LBEX=-0.981407 WBEX=0.174298 PBEX=0.0633544
+ VBB=-3.3
+ VDD=3.3
+ VGG=3.3
+ VGHIGH=0.2411 LVGHIGH=-0.0647002 WVGHIGH=0.0335523 PVGHIGH=0.243914
+ VGLOW=-0.22 LVGLOW=0 WVGLOW=0 PVGLOW=0
+ VOF0=2.413 LVOF0=2.1809 WVOF0=0 PVOF0=0
+ VOFB=-0.0738 LVOFB=0 WVOFB=0 PVOFB=0
+ VOFD=0 LVOFD=0 WVOFD=0 PVOFD=0
+ CJ=908.4e-6 
+ CJGATE=145.1e-12 
+ CJSW=189.1e-12 
+ MJ=375.0e-3 
+ MJSW=200.3e-3 
+ PB=809.1e-3 
+ PHP=500.0e-3 
+ JS=1e-6
*
*
.MODEL NMOS.0P5B5P0 NMOS LEVEL=39 SPICE3=1 CAPOP=39 
+ LMIN=5.0E-6 LMAX=1.0
+ WMIN=0.5E-6 WMAX=0.6E-6
+ LREF=5.0E-6 WREF=0.5E-6
+ TREF=25
+ AI0=2e-15 LAI0=0 WAI0=0 PAI0=0
+ AIB=0 LAIB=0 WAIB=0 PAIB=0
+ BI0=3.291e-14 LBI0=0 WBI0=0 PBI0=0
+ BIB=0 LBIB=0 WBIB=0 PBIB=0
+ CGBO=0
+ CGDO=398.0e-12 
+ CGSO=398.0e-12 
+ LD=2.900e-08
+ LDAC=5.617e-08
+ XW=1.120e-07
+ ETA0=0.0007194 LETA0=0 WETA0=-0.0012227 PETA0=0
+ ETAB=-0.0001 LETAB=0 WETAB=0 PETAB=0
+ FEX=-1.959 LFEX=0 WFEX=0 PFEX=0
+ VFB=-0.7452 LVFB=0 WVFB=0.0479318 PVFB=0
+ K1=0.6003 LK1=0 WK1=-0.02048 PK1=0
+ K2=0 LK2=0 WK2=0 PK2=0
+ MU0=272.6 LMU0=0 WMU0=-38.3455 PMU0=0
+ MU0B=10.65 LMU0B=0 WMU0B=0 PMU0B=0
+ MU20=0.5835 LMU20=0 WMU20=0.0631829 PMU20=0
+ MU2B=0.06678 LMU2B=0 WMU2B=-8.71488e-05 PMU2B=0
+ MU2G=0.304 LMU2G=0 WMU2G=0 PMU2G=0
+ MU30=0 LMU30=0 WMU30=0 PMU30=0
+ MU3B=0 LMU3B=0 WMU3B=0 PMU3B=0
+ MU3G=0 LMU3G=0 WMU3G=0 PMU3G=0
+ MU40=0 LMU40=0 WMU40=0 PMU40=0
+ MU4B=0 LMU4B=0 WMU4B=0 PMU4B=0
+ MU4G=0 LMU4G=0 WMU4G=0 PMU4G=0
+ MUS0=251.5 LMUS0=0 WMUS0=0 PMUS0=0
+ MUSB=-1e-15 LMUSB=0 WMUSB=0 PMUSB=0
+ N0=1.2 LN0=0 WN0=0 PN0=0
+ NB=0.2474 LNB=0 WNB=0 PNB=0
+ ND=0 LND=0 WND=0 PND=0
+ PHI=0.75 LPHI=0 WPHI=0 PPHI=0
+ ACM=3 HDIF=1.0e-6 RSH=3.000e+02
+ TRS=0.000e+00 TRD=0.000e+00
+ TLEV=1 TLEVC=0 TCV=0.001 LTCV=0 WTCV=0 PTCV=0
+ TOX=0.0076
+ U10=0.0009629 LU10=0 WU10=0 PU10=0
+ U1B=-0.02386 LU1B=0 WU1B=-0.000784339 PU1B=0
+ U1D=0 LU1D=0 WU1D=0 PU1D=0
+ UA0=0.0003134 LUA0=0 WUA0=0 PUA0=0
+ UAB=0 LUAB=0 WUAB=0 PUAB=0
+ UB0=0.03782 LUB0=0 WUB0=0 PUB0=0
+ UBB=-0.004 LUBB=0 WUBB=0 PUBB=0
+ BEX=-1.327 LBEX=0 WBEX=0.165583 PBEX=0
+ VBB=-3.3
+ VDD=3.3
+ VGG=3.3
+ VGHIGH=0.25 LVGHIGH=0 WVGHIGH=0 PVGHIGH=0
+ VGLOW=-0.22 LVGLOW=0 WVGLOW=0 PVGLOW=0
+ VOF0=2.113 LVOF0=0 WVOF0=0 PVOF0=0
+ VOFB=-0.0738 LVOFB=0 WVOFB=0 PVOFB=0
+ VOFD=0 LVOFD=0 WVOFD=0 PVOFD=0
+ CJ=908.4e-6 
+ CJGATE=145.1e-12 
+ CJSW=189.1e-12 
+ MJ=375.0e-3 
+ MJSW=200.3e-3 
+ PB=809.1e-3 
+ PHP=500.0e-3 
+ JS=1e-6
*
*
.MODEL NMOS.0P6B0P4 NMOS LEVEL=39 SPICE3=1 CAPOP=39 
+ LMIN=0.4E-6 LMAX=0.43E-6
+ WMIN=0.6E-6 WMAX=0.8E-6
+ LREF=0.4E-6 WREF=0.6E-6
+ TREF=25
+ AI0=2e-15 LAI0=0 WAI0=0 PAI0=0
+ AIB=0 LAIB=0 WAIB=0 PAIB=0
+ BI0=3.291e-14 LBI0=0 WBI0=0 PBI0=0
+ BIB=0 LBIB=0 WBIB=0 PBIB=0
+ CGBO=0
+ CGDO=398.0e-12 
+ CGSO=398.0e-12 
+ LD=2.900e-08
+ LDAC=5.617e-08
+ XW=1.120e-07
+ ETA0=0.01181 LETA0=0.0165137 WETA0=0 PETA0=2.38849e-17
+ ETAB=-0.004957 LETAB=-0.00379552 WETAB=0.0013831 PETAB=0.00107396
+ FEX=-1.409 LFEX=0 WFEX=-0.233764 PFEX=0
+ VFB=-0.4207 LVFB=0.20992 WVFB=0.00974016 PVFB=0.020653
+ K1=0.4374 LK1=-0.206951 WK1=0 PK1=0.00550748
+ K2=0 LK2=0 WK2=0 PK2=0
+ MU0=386.8 LMU0=2.96856 WMU0=0 PMU0=1.37687
+ MU0B=9.5 LMU0B=0 WMU0B=1.86037 PMU0B=0
+ MU20=0.641 LMU20=0.0021204 WMU20=-0.0509735 PMU20=-0.00137687
+ MU2B=0.01895 LMU2B=-0.00101779 WMU2B=0.0105843 PMU2B=0.000275374
+ MU2G=0.1115 LMU2G=-0.0313819 WMU2G=0.0451943 PMU2G=0.00715972
+ MU30=0 LMU30=0 WMU30=0 PMU30=0
+ MU3B=0 LMU3B=0 WMU3B=0 PMU3B=0
+ MU3G=0 LMU3G=0 WMU3G=0 PMU3G=0
+ MU40=0 LMU40=0 WMU40=0 PMU40=0
+ MU4B=0 LMU4B=0 WMU4B=0 PMU4B=0
+ MU4G=0 LMU4G=0 WMU4G=0 PMU4G=0
+ MUS0=1410 LMUS0=568.267 WMUS0=0 PMUS0=0
+ MUSB=-4.43e-14 LMUSB=-9.58421e-15 WMUSB=2.78211 PMUSB=0.614084
+ N0=1.18 LN0=0 WN0=0 PN0=0
+ NB=0.2474 LNB=0 WNB=0 PNB=0
+ ND=0 LND=0 WND=0 PND=0
+ PHI=0.75 LPHI=0 WPHI=0 PPHI=0
+ ACM=3 HDIF=1.0e-6 RSH=3.000e+02
+ TRS=0.000e+00 TRD=0.000e+00
+ TLEV=1 TLEVC=0 TCV=0.001 LTCV=0 WTCV=0 PTCV=0
+ TOX=0.0076
+ U10=5.289 LU10=2.9516 WU10=0 PU10=0
+ U1B=-0.08705 LU1B=-0.125612 WU1B=-0.0890575 PU1B=-0.176515
+ U1D=0 LU1D=0 WU1D=0 PU1D=0
+ UA0=1.006e-15 LUA0=0 WUA0=0 PUA0=0
+ UAB=0 LUAB=0 WUAB=0 PUAB=0
+ UB0=0.01612 LUB0=-0.00063612 WUB0=-0.00230517 PUB0=-0.000275374
+ UBB=-0.003 LUBB=0 WUBB=0 PUBB=0
+ BEX=-1.849 LBEX=0 WBEX=-0.185063 PBEX=0
+ VBB=-3.3
+ VDD=3.3
+ VGG=3.3
+ VGHIGH=0.23 LVGHIGH=-0.00084816 WVGHIGH=0 PVGHIGH=0
+ VGLOW=-0.22 LVGLOW=0 WVGLOW=0 PVGLOW=0
+ VOF0=2.813 LVOF0=0 WVOF0=0 PVOF0=0
+ VOFB=-0.1338 LVOFB=0 WVOFB=0 PVOFB=0
+ VOFD=0 LVOFD=0 WVOFD=0 PVOFD=0
+ CJ=908.4e-6 
+ CJGATE=145.1e-12 
+ CJSW=189.1e-12 
+ MJ=375.0e-3 
+ MJSW=200.3e-3 
+ PB=809.1e-3 
+ PHP=500.0e-3 
+ JS=1e-6
*
*
.MODEL NMOS.0P6B0P43 NMOS LEVEL=39 SPICE3=1 CAPOP=39 
+ LMIN=0.43E-6 LMAX=0.45E-6
+ WMIN=0.6E-6 WMAX=0.8E-6
+ LREF=0.43E-6 WREF=0.6E-6
+ TREF=25
+ AI0=2e-15 LAI0=0 WAI0=0 PAI0=0
+ AIB=0 LAIB=0 WAIB=0 PAIB=0
+ BI0=3.291e-14 LBI0=0 WBI0=0 PBI0=0
+ BIB=0 LBIB=0 WBIB=0 PBIB=0
+ CGBO=0
+ CGDO=398.0e-12 
+ CGSO=398.0e-12 
+ LD=2.900e-08
+ LDAC=5.617e-08
+ XW=1.120e-07
+ ETA0=0.007916 LETA0=0.0085307 WETA0=0 PETA0=0
+ ETAB=-0.004062 LETAB=-0.00467366 WETAB=0.00112986 PETAB=0.00134933
+ FEX=-1.409 LFEX=0 WFEX=-0.233764 PFEX=0
+ VFB=-0.4702 LVFB=0.164052 WVFB=0.00487008 PVFB=0.0142035
+ K1=0.4862 LK1=-0.14947 WK1=-0.00129869 PK1=0.0047345
+ K2=0 LK2=0 WK2=0 PK2=0
+ MU0=386.1 LMU0=3.6456 WMU0=-0.324672 PMU0=-1.34562e-12
+ MU0B=9.5 LMU0B=0 WMU0B=1.86037 PMU0B=0
+ MU20=0.6405 LMU20=0.00218736 WMU20=-0.0506488 PMU20=-0.00236725
+ MU2B=0.01919 LMU2B=-0.0239151 WMU2B=0.0105194 PMU2B=0.00520795
+ MU2G=0.1189 LMU2G=0 WMU2G=0.043506 PMU2G=-3.28522e-16
+ MU30=0 LMU30=0 WMU30=0 PMU30=0
+ MU3B=0 LMU3B=0 WMU3B=0 PMU3B=0
+ MU3G=0 LMU3G=0 WMU3G=0 PMU3G=0
+ MU40=0 LMU40=0 WMU40=0 PMU40=0
+ MU4B=0 LMU4B=0 WMU4B=0 PMU4B=0
+ MU4G=0 LMU4G=0 WMU4G=0 PMU4G=0
+ MUS0=1276 LMUS0=167.698 WMUS0=0 PMUS0=0
+ MUSB=-4.204e-14 LMUSB=0 WMUSB=2.63731 PMUSB=0
+ N0=1.18 LN0=0 WN0=0 PN0=0
+ NB=0.2474 LNB=0 WNB=0 PNB=0
+ ND=0 LND=0 WND=0 PND=0
+ PHI=0.75 LPHI=0 WPHI=0 PPHI=0
+ ACM=3 HDIF=1.0e-6 RSH=3.000e+02
+ TRS=0.000e+00 TRD=0.000e+00
+ TLEV=1 TLEVC=0 TCV=0.001 LTCV=0 WTCV=0 PTCV=0
+ TOX=0.0076
+ U10=4.593 LU10=2.23111 WU10=0 PU10=-2.10254e-14
+ U1B=-0.05743 LU1B=-0.083703 WU1B=-0.0474346 PU1B=-0.117652
+ U1D=0 LU1D=0 WU1D=0 PU1D=0
+ UA0=1.006e-15 LUA0=-2.40391e-05 WUA0=0 PUA0=-3.41759e-21
+ UAB=0 LUAB=0 WUAB=0 PUAB=0
+ UB0=0.01627 LUB0=-0.000656208 WUB0=-0.00224024 PUB0=0.000236725
+ UBB=-0.003 LUBB=0 WUBB=0 PUBB=0
+ BEX=-1.849 LBEX=0 WBEX=-0.185063 PBEX=0
+ VBB=-3.3
+ VDD=3.3
+ VGG=3.3
+ VGHIGH=0.2302 LVGHIGH=-0.0226027 WVGHIGH=0 PVGHIGH=6.57043e-16
+ VGLOW=-0.22 LVGLOW=0 WVGLOW=0 PVGLOW=0
+ VOF0=2.813 LVOF0=0 WVOF0=0 PVOF0=0
+ VOFB=-0.1338 LVOFB=0 WVOFB=0 PVOFB=0
+ VOFD=0 LVOFD=0 WVOFD=0 PVOFD=0
+ CJ=908.4e-6 
+ CJGATE=145.1e-12 
+ CJSW=189.1e-12 
+ MJ=375.0e-3 
+ MJSW=200.3e-3 
+ PB=809.1e-3 
+ PHP=500.0e-3 
+ JS=1e-6
*
*
.MODEL NMOS.0P6B0P45 NMOS LEVEL=39 SPICE3=1 CAPOP=39 
+ LMIN=0.45E-6 LMAX=0.5E-6
+ WMIN=0.6E-6 WMAX=0.8E-6
+ LREF=0.45E-6 WREF=0.6E-6
+ TREF=25
+ AI0=2e-15 LAI0=0 WAI0=0 PAI0=0
+ AIB=0 LAIB=0 WAIB=0 PAIB=0
+ BI0=3.291e-14 LBI0=0 WBI0=0 PBI0=0
+ BIB=0 LBIB=0 WBIB=0 PBIB=0
+ CGBO=0
+ CGDO=398.0e-12 
+ CGSO=398.0e-12 
+ LD=2.900e-08
+ LDAC=5.617e-08
+ XW=1.120e-07
+ ETA0=0.006746 LETA0=0.0061682 WETA0=0 PETA0=0
+ ETAB=-0.003421 LETAB=-0.00232174 WETAB=0.000944796 PETAB=0.000663797