*
*PROCESS=hp		
*RUN=n41o
*WAFER=9
*Gate-oxide thickness= 223.0 angstroms 
*Geometries (W-drawn/L-drawn, units are um/um) of transistors measured were: 
* 1.8/1.2, 3.6/1.2, 10.8/1.2, 3.6/3.6, 3.6/10.8 
*Bias range to perform the extraction (Vdd)=5 volts 
*DATE=03-18-94
*
* N41O  SPICE BSIM PARAMETERS
* MOSIS (31 stages)                  74.25  MHz
*NMOS PARAMETERS
*
.MODEL nmos NMOS LEVEL=13 VFB0=
+ -9.97143E-01,-9.47550E-02, 9.31633E-02
+  8.17898E-01, 6.50671E-25, 0.00000E+00
+  1.13702E+00, 9.72777E-02,-7.57472E-02
+  1.35242E-01, 8.65295E-02,-9.11915E-02
+ -3.45882E-03, 1.09129E-02, 4.02186E-03
+  5.60051E+02,4.26573E-001,5.83344E-001
+  6.30413E-02, 8.28909E-02,-4.64111E-02
+ -1.65317E-02, 2.51999E-01,-7.92918E-02
+  8.60663E+00,-6.54068E+00, 3.36527E+01
+ -1.07924E-03,-7.21374E-03, 4.99921E-03
+  3.59544E-04,-1.31670E-03,-3.31438E-03
+  6.72154E-04,-2.12938E-03, 2.04407E-02
+ -4.35031E-04, 4.80908E-03,-2.91843E-04
+  6.05566E+02, 1.65212E+02,-8.28375E+01
+ -1.75892E+00, 1.14507E+01, 4.30094E+01
+  8.21416E-01, 2.92442E+01,-1.69687E+01
+ -1.08339E-03, 2.38862E-02,-1.24566E-02
+ 2.23000E-002, 2.70000E+01, 5.00000E+00                                        
+ 4.95410E-010,4.95410E-010,4.09558E-010
+ 1.00000E+000,0.00000E+000,0.00000E+000
+ 1.00000E+000,0.00000E+000,0.00000E+000
+ 0.00000E+000,0.00000E+000,0.00000E+000
+ 0.00000E+000,0.00000E+000,0.00000E+000
+ 70.6,    3.189700e-04,    1.385500e-10,    1.000000e-08,    0.8
+ 0.8,    1.10966,    0.12395,    0,    0
*
* Gate Oxide Thickness is 222 Angstroms
*
*
*PMOS PARAMETERS
*
.MODEL pmos PMOS LEVEL=13 VFB0=
+ -2.34604E-01, 6.19905E-02,-1.10455E-01
+  7.45422E-01, 7.75661E-25,-3.60618E-24
+  5.03959E-01,-1.14926E-01, 2.21300E-01
+ -1.15324E-02, 6.73531E-03, 2.64140E-02
+ -3.17290E-03, 2.19606E-02,-3.80774E-03
+  1.86163E+02,2.06546E-001,6.68162E-001
+  1.45777E-01, 3.88985E-02,-4.82811E-02
+ -1.00612E-02, 1.30553E-01,-2.29259E-02
+  9.40164E+00,-2.74971E+00, 2.98681E+00
+ -1.56508E-04,-8.91799E-04,-4.57574E-03
+  2.40221E-04,-7.75485E-04,-2.84480E-03
+  8.84178E-03,-2.53726E-03, 3.98777E-03
+ -1.04995E-03, 2.71427E-03, 8.04192E-03
+  1.92278E+02, 6.71309E+01,-4.89985E+00
+  8.59588E+00, 5.05667E-01, 8.89974E+00
+  4.20301E-01, 5.33143E+00,-9.64429E-01
+  4.64338E-04,-6.77982E-03, 1.77979E-03
+ 2.23000E-002, 2.70000E+01, 5.00000E+00                                        
+ 2.39877E-010,2.39877E-010,4.36244E-010
+ 1.00000E+000,0.00000E+000,0.00000E+000
+ 1.00000E+000,0.00000E+000,0.00000E+000
+ 0.00000E+000,0.00000E+000,0.00000E+000
+ 0.00000E+000,0.00000E+000,0.00000E+000
+ 121.5,    4.774400e-04,    1.569800e-10,    1.000000e-08,    0.85
+ 0.85,    0.494312,    0.227052,    0,    0
*
*N+ diffusion:: 
*
.MODEL PC1_DU1 R
+ RSH=70.6 COX=0.000319 CAPSW=1.39e-10 W=0 DW=0
*
*P+ diffusion:: 
*
.MODEL PC1_DU2 R
+ RSH=121 COX=0.000477 CAPSW=1.57e-10 W=0 DW=0
*
*METAL LAYER -- 1
*
.MODEL PC1_ML1 R
+ RSH=0.057 COX=2.6e-05 CAPSW=0 W=0 DW=0
*
*METAL LAYER -- 2
*
.MODEL PC1_ML2 R
+ RSH=0.0384 COX=0 CAPSW=0 W=0 DW=0
