*
*MOSIS (31 stages)                  71.04  MHz
* N41P  SPICE BSIM PARAMETERS
*PROCESS=hp	
*RUN=n41p
*WAFER=1
*Gate-oxide thickness= 226.0 angstroms 
*Geometries (W-drawn/L-drawn, units are um/um) of transistors measured were: 
* 1.8/1.2, 3.6/1.2, 10.8/1.2, 3.6/3.6, 3.6/10.8 
*Bias range to perform the extraction (Vdd)=5 volts 
*DATE=03-18-94
*
*NMOS PARAMETERS
*
.MODEL nmos NMOS LEVEL=13 VFB0=
+ -9.92132E-01,-5.95562E-02, 7.89590E-02
+  8.13038E-01, 1.62771E-25, 0.00000E+00
+  1.12579E+00, 6.17037E-02,-3.62116E-02
+  1.25451E-01, 7.13337E-02,-5.92134E-02
+ -6.56896E-03, 9.50100E-03, 1.05733E-02
+  5.54760E+02,3.67034E-001,6.27200E-001
+  5.96229E-02, 7.45265E-02,-3.80899E-02
+ -1.83931E-02, 3.01878E-01,-1.07240E-01
+  7.53220E+00,-7.74087E+00, 3.45300E+01
+ -1.84896E-03,-6.54683E-03, 5.71165E-03
+  5.63024E-04,-6.52135E-04,-4.02809E-03
+ -2.21070E-05,-2.52770E-03, 2.03938E-02
+  1.87622E-04, 2.60585E-03,-4.44951E-03
+  5.97185E+02, 1.84806E+02,-8.92732E+01
+ -1.98567E+00, 6.15845E+00, 4.23176E+01
+  3.64440E-01, 3.35167E+01,-1.76153E+01
+ -1.41320E-03, 3.04354E-02,-1.53003E-02
+ 2.26000E-002, 2.70000E+01, 5.00000E+00                                        
+ 4.20604E-010,4.20604E-010,4.22645E-010
+ 1.00000E+000,0.00000E+000,0.00000E+000
+ 1.00000E+000,0.00000E+000,0.00000E+000
+ 0.00000E+000,0.00000E+000,0.00000E+000
+ 0.00000E+000,0.00000E+000,0.00000E+000
+ 68.18,    3.220100e-04,    1.361500e-10,    1.000000e-08,    0.8
+ 0.8,    1.11722,    0.123946,    0,    0
*
* Gate Oxide Thickness is 226 Angstroms
*
*
*PMOS PARAMETERS
*
.MODEL pmos PMOS LEVEL=13 VFB0=
+ -8.12751E-02,-1.38311E-01, 3.20145E-03
+  7.23910E-01, 0.00000E+00, 0.00000E+00
+  3.20594E-01, 1.54809E-01, 2.46566E-02
+ -5.76248E-02, 7.65865E-02,-2.87106E-02
+ -2.08971E-03, 1.93050E-02, 1.91312E-03
+  1.85505E+02,1.54644E-001,6.70011E-001
+  1.39870E-01, 4.35095E-02,-5.34281E-02
+ -9.82464E-03, 1.35578E-01,-2.94912E-02
+  9.33288E+00,-2.63686E+00, 2.93855E+00
+  1.62903E-03,-2.76752E-03,-4.32582E-03
+  5.98576E-04,-6.39980E-04,-3.52954E-03
+  8.12958E-03,-1.31370E-03, 3.36155E-03
+ -1.02184E-03, 1.45191E-03, 8.96961E-03
+  1.83736E+02, 7.84567E+01,-2.41509E+01
+  7.30796E+00, 1.87042E+00, 7.18059E+00
+  7.77359E-01, 4.97765E+00,-2.77521E+00
+  8.37593E-04,-7.27540E-03,-1.56162E-03
+ 2.26000E-002, 2.70000E+01, 5.00000E+00                                        
+ 1.77215E-010,1.77215E-010,4.36066E-010
+ 1.00000E+000,0.00000E+000,0.00000E+000
+ 1.00000E+000,0.00000E+000,0.00000E+000
+ 0.00000E+000,0.00000E+000,0.00000E+000
+ 0.00000E+000,0.00000E+000,0.00000E+000
+ 105.93,    4.752000e-04,    1.415300e-10,    1.000000e-08,    0.85
+ 0.85,    0.499761,    0.191978,    0,    0
*
*N+ diffusion:: 
*
.MODEL PC1_DU1 R
+ RSH=68.2 COX=0.000322 CAPSW=1.36e-10 W=0 DW=0
*
*P+ diffusion:: 
*
.MODEL PC1_DU2 R
+ RSH=106 COX=0.000475 CAPSW=1.42e-10 W=0 DW=0
*
*METAL LAYER -- 1
*
.MODEL PC1_ML1 R
+ RSH=0.0552 COX=2.6e-05 CAPSW=0 W=0 DW=0
*
*METAL LAYER -- 2
*
.MODEL PC1_ML2 R
+ RSH=0.0369 COX=0 CAPSW=0 W=0 DW=0
