* N42U  SPICE BSIM PARAMETERS
* MOSIS (31 stages)                  77.04  MHz
*
*PROCESS=hp
*RUN=n42u
*WAFER=9
*Gate-oxide thickness= 211.0 angstroms 
*Geometries (W-drawn/L-drawn, units are um/um) of transistors measured were: 
* 1.8/1.2, 3.6/1.2, 10.8/1.2, 3.6/3.6, 3.6/10.8 
*Bias range to perform the extraction (Vdd)=5 volts 
*DATE=03-30-94
*
*NMOS PARAMETERS
*
.MODEL nmos NMOS LEVEL=13 VFB0=
+ -9.99127E-01,-1.00250E-01, 2.28493E-01
+  8.08362E-01,-6.50689E-25, 0.00000E+00
+  1.14313E+00, 1.10730E-01,-2.91945E-01
+  1.37212E-01, 9.22933E-02,-1.63946E-01
+ -4.56630E-03, 1.17472E-02, 1.86713E-03
+  5.17025E+02,4.19304E-001,5.85216E-001
+  6.20666E-02, 8.13566E-02,-3.33852E-02
+ -1.19039E-02, 2.54579E-01,-1.28916E-01
+  7.14801E+00,-6.21930E+00, 3.38133E+01
+ -8.87041E-04,-6.35875E-03, 2.09368E-04
+  7.57832E-04,-1.46870E-03,-4.94910E-03
+  3.01983E-04,-2.17167E-03, 2.14491E-02
+ -8.98569E-04, 2.98743E-03, 6.23900E-03
+  5.65082E+02, 1.62947E+02,-1.30860E+02
+ -1.97516E+00, 8.30677E+00, 4.52878E+01
+  1.13767E+00, 2.98025E+01,-2.45988E+01
+ -3.54381E-04, 2.57421E-02,-2.17108E-02
+ 2.11000E-002, 2.70000E+01, 5.00000E+00                                        
+ 5.14662E-010,5.14662E-010,4.12899E-010
+ 1.00000E+000,0.00000E+000,0.00000E+000
+ 1.00000E+000,0.00000E+000,0.00000E+000
+ 0.00000E+000,0.00000E+000,0.00000E+000
+ 0.00000E+000,0.00000E+000,0.00000E+000
+ 68.8,    3.018000e-04,    1.385000e-10,    1.000000e-08,    0.8
+ 0.8,    1.11653,    0.12395,    0,    0
*
* Gate Oxide Thickness is 210 Angstroms
*
*
*PMOS PARAMETERS
*
.MODEL pmos PMOS LEVEL=13 VFB0=
+ -2.74471E-01, 6.18780E-02,-1.13019E-01
+  7.55291E-01, 0.00000E+00, 0.00000E+00
+  4.70800E-01,-8.50053E-02, 2.76732E-01
+ -2.17895E-02, 5.53265E-03, 6.31629E-02
+ -7.85026E-03, 2.18943E-02, 3.57236E-03
+  1.69098E+02,2.54768E-001,6.78748E-001
+  1.29925E-01, 4.82498E-02,-4.47481E-02
+ -7.31239E-03, 1.19064E-01,-4.02662E-02
+  8.54233E+00,-2.44389E+00, 3.34050E+00
+ -3.39089E-04,-2.40147E-03, 1.16915E-04
+  7.28769E-04,-2.26208E-04,-2.90417E-03
+  8.04402E-03,-1.70862E-03, 5.43645E-03
+ -4.70013E-04, 3.52328E-03, 1.37550E-03
+  1.74929E+02, 5.99878E+01,-1.56524E+01
+  7.65546E+00, 1.41808E+00, 5.65155E+00
+  1.28002E+00, 1.38669E+01,-1.66488E+01
+  1.04197E-03, 3.01251E-03,-1.34375E-02
+ 2.11000E-002, 2.70000E+01, 5.00000E+00                                        
+ 3.12708E-010,3.12708E-010,4.42767E-010
+ 1.00000E+000,0.00000E+000,0.00000E+000
+ 1.00000E+000,0.00000E+000,0.00000E+000
+ 0.00000E+000,0.00000E+000,0.00000E+000
+ 0.00000E+000,0.00000E+000,0.00000E+000
+ 115,    5.004500e-04,    0.000000e+00,    1.000000e-08,    0.85
+ 0.85,    0.518633,    0.239906,    0,    0
*
*N+ diffusion:: 
*
.MODEL PC1_DU1 R
+ RSH=68.8 COX=0.000302 CAPSW=1.39e-10 W=0 DW=0
*
*P+ diffusion:: 
*
.MODEL PC1_DU2 R
+ RSH=115 COX=0.0005 CAPSW=0 W=0 DW=0
*
*METAL LAYER -- 1
*
.MODEL PC1_ML1 R
+ RSH=0.06 COX=2.6e-05 CAPSW=0 W=0 DW=0
*
*METAL LAYER -- 2
*
.MODEL PC1_ML2 R
+ RSH=0.04 COX=1.3e-05 CAPSW=0 W=0 DW=0
