* N43A  SPICE BSIM PARAMETERS
*MOSIS (31 stages)                  78.95  MHz
*
*PROCESS=hp	
*RUN=n43a
*WAFER=4
*Gate-oxide thickness= 219.0 angstroms 
*Geometries (W-drawn/L-drawn, units are um/um) of transistors measured were: 
* 1.8/1.2, 3.6/1.2, 10.8/1.2, 3.6/3.6, 3.6/10.8 
*Bias range to perform the extraction (Vdd)=5 volts 
*DATE=04-23-94
*
*NMOS PARAMETERS
*
.MODEL nmos NMOS LEVEL=13 VFB0=
+ -9.09782E-01,-9.35054E-02,-1.73391E-02
+  8.19569E-01, 0.00000E+00, 9.62831E-25
+  1.02517E+00, 1.06904E-01, 4.17874E-02
+  1.06645E-01, 9.12839E-02,-5.09667E-02
+ -2.76134E-03, 1.38943E-02, 1.15677E-03
+  5.75459E+02,4.58498E-001,6.00573E-001
+  6.36508E-02, 9.10469E-02,-5.51910E-02
+ -1.45668E-02, 2.24779E-01,-7.31177E-02
+  7.95265E+00,-6.01746E+00, 3.73973E+01
+ -6.84262E-04,-6.84203E-03, 3.75690E-03
+  3.13769E-04,-2.34187E-04,-5.97693E-03
+  2.89762E-04,-1.68086E-03, 2.23147E-02
+ -4.95574E-04, 3.49646E-03, 1.60615E-03
+  6.12681E+02, 1.53115E+02,-6.34759E+01
+ -3.09584E+00, 1.08703E+01, 4.99177E+01
+  1.30464E+00, 2.36023E+01,-9.48016E+00
+ -1.05692E-03, 1.92949E-02,-8.24974E-03
+ 2.19000E-002, 2.70000E+01, 5.00000E+00                                        
+ 5.42212E-010,5.42212E-010,4.15902E-010
+ 1.00000E+000,0.00000E+000,0.00000E+000
+ 1.00000E+000,0.00000E+000,0.00000E+000
+ 0.00000E+000,0.00000E+000,0.00000E+000
+ 0.00000E+000,0.00000E+000,0.00000E+000
+ 65.5,    3.025400e-04,    1.394000e-10,    1.000000e-08,    0.8
+ 0.8,    1.09425,    0.12519,    0,    0
*
* Gate Oxide Thickness is 219 Angstroms
*
*
*PMOS PARAMETERS
*
.MODEL pmos PMOS LEVEL=13 VFB0=
+ -2.15718E-01,-1.22830E-02, 4.69282E-02
+  7.35184E-01, 0.00000E+00, 1.79096E-24
+  4.94626E-01, 1.79519E-02, 4.12811E-02
+ -9.95829E-03, 3.51636E-02,-1.31970E-02
+ -6.32864E-03, 2.15462E-02, 1.98077E-04
+  1.84490E+02,2.97821E-001,6.74885E-001
+  1.32768E-01, 5.72581E-02,-6.24928E-02
+ -8.08755E-03, 1.11676E-01,-2.57795E-02
+  9.38042E+00,-3.02640E+00, 3.80580E+00
+  3.45923E-04,-3.33718E-03,-8.72936E-04
+  1.25863E-03,-1.35951E-03,-2.56297E-03
+  8.25775E-03,-2.91934E-03, 6.57699E-03
+ -6.09476E-04, 4.25987E-03, 2.06409E-03
+  1.92146E+02, 6.74418E+01,-2.34179E+01
+  8.54273E+00, 1.79110E+00, 5.86598E+00
+  5.57341E-01, 4.79116E+00,-1.96195E+00
+  5.13712E-04,-4.35046E-03,-1.00713E-03
+ 2.19000E-002, 2.70000E+01, 5.00000E+00                                        
+ 3.52198E-010,3.52198E-010,4.39396E-010
+ 1.00000E+000,0.00000E+000,0.00000E+000
+ 1.00000E+000,0.00000E+000,0.00000E+000
+ 0.00000E+000,0.00000E+000,0.00000E+000
+ 0.00000E+000,0.00000E+000,0.00000E+000
+ 108.6,    5.012400e-04,    1.551500e-10,    1.000000e-08,    0.85
+ 0.85,    0.518458,    0.196249,    0,    0
*
*N+ diffusion:: 
*
.MODEL PC1_DU1 R
+ RSH=65.5 COX=0.000303 CAPSW=1.39e-10 W=0 DW=0
*
*P+ diffusion:: 
*
.MODEL PC1_DU2 R
+ RSH=109 COX=0.000501 CAPSW=1.55e-10 W=0 DW=0
*
*METAL LAYER -- 1
*
.MODEL PC1_ML1 R
+ RSH=0.0555 COX=2.6e-05 CAPSW=0 W=0 DW=0
*
*METAL LAYER -- 2
*
.MODEL PC1_ML2 R
+ RSH=0.0371 COX=0 CAPSW=0 W=0 DW=0
