*
*MOSIS (31 stages)                  83.58  MHz
*PROCESS=hp	
*RUN=n43d
*WAFER=12
*Gate-oxide thickness= 218.0 angstroms 
*Geometries (W-drawn/L-drawn, units are um/um) of transistors measured were: 
* 1.8/1.2, 3.6/1.2, 10.8/1.2, 3.6/3.6, 3.6/10.8 
*Bias range to perform the extraction (Vdd)=5 volts 
*DATE=05-05-94
*
*NMOS PARAMETERS
*
.MODEL nmos NMOS LEVEL=13 VFB0=
+ -9.43634E-01,-9.96676E-02, 5.53878E-02
+  8.16333E-01,-1.29139E-25,-6.88098E-25
+  1.08880E+00, 6.15756E-02,-2.56217E-03
+  1.31584E-01, 6.65307E-02,-5.17248E-02
+ -1.57830E-03, 9.43462E-03, 7.28912E-03
+  5.58811E+02,3.96042E-001,4.71416E-001
+  7.81670E-02, 8.35192E-02,-4.06166E-02
+ -5.36514E-03, 2.25343E-01,-3.06604E-02
+  5.69692E+00,-2.30956E+00, 2.79858E+01
+ -2.55780E-03,-4.29895E-03, 1.08758E-04
+ -3.13429E-04,-8.57023E-04,-4.39425E-03
+ -1.97406E-03, 1.40989E-03, 1.68512E-02
+  6.12492E-04, 3.19654E-03,-2.04135E-03
+  6.38701E+02, 1.47283E+02,-1.32286E+02
+ -1.26427E+00, 1.06048E+01, 3.98428E+01
+  4.74379E+00, 2.47382E+01,-1.06739E+01
+  7.52596E-04, 2.04713E-02,-5.67812E-03
+ 2.18000E-002, 2.70000E+01, 5.00000E+00                                        
+ 4.70501E-010,4.70501E-010,3.75251E-010
+ 1.00000E+000,0.00000E+000,0.00000E+000
+ 1.00000E+000,0.00000E+000,0.00000E+000
+ 0.00000E+000,0.00000E+000,0.00000E+000
+ 0.00000E+000,0.00000E+000,0.00000E+000
+ 67.92,    3.289000e-04,    1.394000e-10,    1.000000e-08,    0.8
+ 0.8,    1.12737,    0.12519,    0,    0
*
* Gate Oxide Thickness is 218 Angstroms
*
*
*PMOS PARAMETERS
*
.MODEL pmos PMOS LEVEL=13 VFB0=
+ -9.01675E-02,-1.35231E-01,-9.86095E-02
+  7.50430E-01, 0.00000E+00,-3.45941E-24
+  2.09469E-01, 1.90704E-01, 2.09530E-01
+ -9.68999E-02, 9.58226E-02, 2.74780E-02
+ -7.85453E-03, 2.55944E-02,-4.61301E-03
+  1.85358E+02,2.48652E-001,7.08916E-001
+  1.42311E-01, 4.91117E-02,-5.19897E-02
+ -8.57978E-03, 1.15576E-01,-2.39556E-02
+  9.17853E+00,-2.74802E+00, 3.28939E+00
+ -4.02274E-04,-1.51622E-03,-2.75653E-03
+  1.38933E-03,-1.79323E-03,-2.56345E-03
+  8.24763E-03,-2.38328E-03, 4.73752E-03
+ -7.86069E-04, 3.05013E-03, 5.01521E-03
+  1.79362E+02, 7.39432E+01,-6.19072E+00
+  6.79642E+00, 2.36910E+00, 7.64112E+00
+ -2.31426E-01, 4.79049E+00,-6.59595E-01
+  4.62958E-04,-6.78960E-03, 1.82168E-03
+ 2.18000E-002, 2.70000E+01, 5.00000E+00                                        
+ 2.95401E-010,2.95401E-010,4.50431E-010
+ 1.00000E+000,0.00000E+000,0.00000E+000
+ 1.00000E+000,0.00000E+000,0.00000E+000
+ 0.00000E+000,0.00000E+000,0.00000E+000
+ 0.00000E+000,0.00000E+000,0.00000E+000
+ 109.97,    4.931000e-04,    1.538700e-10,    1.000000e-08,    0.85
+ 0.85,    0.5167,    0.2137,    0,    0
*
*N+ diffusion:: 
*
.MODEL PC1_DU1 R
+ RSH=67.9 COX=0.000329 CAPSW=1.39e-10 W=0 DW=0
*
*P+ diffusion:: 
*
.MODEL PC1_DU2 R
+ RSH=110 COX=0.000493 CAPSW=1.54e-10 W=0 DW=0
*
*METAL LAYER -- 1
*
.MODEL PC1_ML1 R
+ RSH=0.056 COX=2.6e-05 CAPSW=0 W=0 DW=0
*
*METAL LAYER -- 2
*
.MODEL PC1_ML2 R
+ RSH=0.038 COX=0 CAPSW=0 W=0 DW=0
