*
*MOSIS (31 stages)                  76.69  MHz
*PROCESS=hp
*RUN=n43f		
*WAFER=7		
*Gate-oxide thickness= 225.0 angstroms 
*Geometries (W-drawn/L-drawn, units are um/um) of transistors measured were: 
* 1.8/1.2, 3.6/1.2, 10.8/1.2, 3.6/3.6, 3.6/10.8 
*Bias range to perform the extraction (Vdd)=5 volts 
*DATE=04-26-94	
*
*NMOS PARAMETERS
*
.MODEL PC1_NM1_DU1 NMOS LEVEL=13 VFB0=
+ -9.82860E-01,-1.09169E-01, 6.00220E-02
+  8.19362E-01, 1.30266E-24, 0.00000E+00
+  1.10613E+00, 1.17105E-01,-4.88995E-02
+  1.24399E-01, 8.93576E-02,-7.27764E-02
+ -5.15992E-03, 1.23317E-02, 2.25691E-03
+  5.65807E+02,4.13811E-001,6.55595E-001
+  6.16132E-02, 8.69651E-02,-4.80691E-02
+ -1.71379E-02, 2.51812E-01,-7.20951E-02
+  8.75088E+00,-7.56979E+00, 3.21216E+01
+ -1.09173E-03,-6.96250E-03, 3.74945E-03
+  1.14704E-04,-1.16782E-03,-3.84563E-03
+  8.06979E-04,-2.75014E-03, 1.83771E-02
+ -7.59885E-04, 3.54365E-03, 4.24744E-03
+  6.11164E+02, 1.68916E+02,-7.43654E+01
+ -1.95190E+00, 8.49202E+00, 4.61654E+01
+  2.54973E+00, 3.02501E+01,-1.77978E+01
+ -1.12524E-03, 2.53012E-02,-1.32973E-02
+ 2.25000E-002, 2.70000E+01, 5.00000E+00                                        
+ 4.76316E-010,4.76316E-010,4.31793E-010
+ 1.00000E+000,0.00000E+000,0.00000E+000
+ 1.00000E+000,0.00000E+000,0.00000E+000
+ 0.00000E+000,0.00000E+000,0.00000E+000
+ 0.00000E+000,0.00000E+000,0.00000E+000
+ 66.3,    3.322000e-04,    1.394000e-10,    1.000000e-08,    0.8
+ 0.8,    1.1356,    0.1252,    0,    0
*
* Gate Oxide Thickness is 225 Angstroms
*
*
*PMOS PARAMETERS
*
.MODEL PC1_PM1_DU2 PMOS LEVEL=13 VFB0=
+ -7.22873E-02,-9.83106E-02,-1.16774E-01
+  7.44845E-01,-1.87232E-25, 4.19025E-25
+  2.49689E-01, 1.54350E-01, 1.91372E-01
+ -8.27131E-02, 8.07583E-02, 2.17028E-02
+ -5.68427E-03, 2.38771E-02,-1.27033E-03
+  1.84824E+02,2.36551E-001,7.38826E-001
+  1.30543E-01, 6.16167E-02,-5.88042E-02
+ -8.39979E-03, 1.11799E-01,-2.19712E-02
+  9.39209E+00,-2.36679E+00, 2.92716E+00
+  5.28754E-04,-2.25529E-03,-2.28515E-03
+  5.35733E-04,-1.19041E-03,-3.33047E-03
+  7.98860E-03,-3.61437E-04, 3.01266E-03
+ -6.44807E-04, 2.11387E-03, 4.47415E-03
+  1.79285E+02, 7.28060E+01,-1.22561E+01
+  6.91033E+00, 2.65833E+00, 6.24836E+00
+ -3.93045E-01, 5.58591E+00,-8.55524E-01
+  4.30542E-04,-5.63692E-03, 1.03714E-03
+ 2.25000E-002, 2.70000E+01, 5.00000E+00                                        
+ 2.72282E-010,2.72282E-010,4.57917E-010
+ 1.00000E+000,0.00000E+000,0.00000E+000
+ 1.00000E+000,0.00000E+000,0.00000E+000
+ 0.00000E+000,0.00000E+000,0.00000E+000
+ 0.00000E+000,0.00000E+000,0.00000E+000
+ 111.4,    4.914000e-04,    1.354000e-10,    1.000000e-08,    0.85
+ 0.85,    0.5177,    0.1547,    0,    0
*
*N+ diffusion:: 
*
.MODEL PC1_DU1 R
+ RSH=66.3 COX=0.000332 CAPSW=1.39e-10 W=0 DW=0
*
*P+ diffusion:: 
*
.MODEL PC1_DU2 R
+ RSH=111 COX=0.000491 CAPSW=1.35e-10 W=0 DW=0
*
*METAL LAYER -- 1
*
.MODEL PC1_ML1 R
+ RSH=0.05 COX=2.6e-05 CAPSW=0 W=0 DW=0
*
*METAL LAYER -- 2
*
.MODEL PC1_ML2 R
+ RSH=0.04 COX=0 CAPSW=0 W=0 DW=0
