
.lib typical
*
*PROCESS=hp		
*RUN=n41o
*WAFER=9
*Gate-oxide thickness= 223.0 angstroms 
*Geometries (W-drawn/L-drawn, units are um/um) of transistors measured were: 
* 1.8/1.2, 3.6/1.2, 10.8/1.2, 3.6/3.6, 3.6/10.8 
*Bias range to perform the extraction (Vdd)=5 volts 
*DATE=03-18-94
*
* N41O  SPICE BSIM PARAMETERS
* MOSIS (31 stages)                  74.25  MHz
*NMOS PARAMETERS
*
.MODEL nmos NMOS LEVEL=13 VFB0=
+ -9.97143E-01,-9.47550E-02, 9.31633E-02
+  8.17898E-01, 6.50671E-25, 0.00000E+00
+  1.13702E+00, 9.72777E-02,-7.57472E-02
+  1.35242E-01, 8.65295E-02,-9.11915E-02
+ -3.45882E-03, 1.09129E-02, 4.02186E-03
+  5.60051E+02,4.26573E-001,5.83344E-001
+  6.30413E-02, 8.28909E-02,-4.64111E-02
+ -1.65317E-02, 2.51999E-01,-7.92918E-02
+  8.60663E+00,-6.54068E+00, 3.36527E+01
+ -1.07924E-03,-7.21374E-03, 4.99921E-03
+  3.59544E-04,-1.31670E-03,-3.31438E-03
+  6.72154E-04,-2.12938E-03, 2.04407E-02
+ -4.35031E-04, 4.80908E-03,-2.91843E-04
+  6.05566E+02, 1.65212E+02,-8.28375E+01
+ -1.75892E+00, 1.14507E+01, 4.30094E+01
+  8.21416E-01, 2.92442E+01,-1.69687E+01
+ -1.08339E-03, 2.38862E-02,-1.24566E-02
+ 2.23000E-002, 2.70000E+01, 5.00000E+00                                        
+ 4.95410E-010,4.95410E-010,4.09558E-010
+ 1.00000E+000,0.00000E+000,0.00000E+000
+ 1.00000E+000,0.00000E+000,0.00000E+000
+ 0.00000E+000,0.00000E+000,0.00000E+000
+ 0.00000E+000,0.00000E+000,0.00000E+000
+ 70.6,    3.189700e-04,    1.385500e-10,    1.000000e-08,    0.8
+ 0.8,    1.10966,    0.12395,    0,    0
*
* Gate Oxide Thickness is 222 Angstroms
.endl typical

.lib slow
*
*MOSIS (31 stages)                  71.04  MHz
* N41P  SPICE BSIM PARAMETERS
*PROCESS=hp	
*RUN=n41p
*WAFER=1
*Gate-oxide thickness= 226.0 angstroms 
*Geometries (W-drawn/L-drawn, units are um/um) of transistors measured were: 
* 1.8/1.2, 3.6/1.2, 10.8/1.2, 3.6/3.6, 3.6/10.8 
*Bias range to perform the extraction (Vdd)=5 volts 
*DATE=03-18-94
*
*NMOS PARAMETERS
*
.MODEL nmos NMOS LEVEL=13 VFB0=
+ -9.92132E-01,-5.95562E-02, 7.89590E-02
+  8.13038E-01, 1.62771E-25, 0.00000E+00
+  1.12579E+00, 6.17037E-02,-3.62116E-02
+  1.25451E-01, 7.13337E-02,-5.92134E-02
+ -6.56896E-03, 9.50100E-03, 1.05733E-02
+  5.54760E+02,3.67034E-001,6.27200E-001
+  5.96229E-02, 7.45265E-02,-3.80899E-02
+ -1.83931E-02, 3.01878E-01,-1.07240E-01
+  7.53220E+00,-7.74087E+00, 3.45300E+01
+ -1.84896E-03,-6.54683E-03, 5.71165E-03
+  5.63024E-04,-6.52135E-04,-4.02809E-03
+ -2.21070E-05,-2.52770E-03, 2.03938E-02
+  1.87622E-04, 2.60585E-03,-4.44951E-03
+  5.97185E+02, 1.84806E+02,-8.92732E+01
+ -1.98567E+00, 6.15845E+00, 4.23176E+01
+  3.64440E-01, 3.35167E+01,-1.76153E+01
+ -1.41320E-03, 3.04354E-02,-1.53003E-02
+ 2.26000E-002, 2.70000E+01, 5.00000E+00                                        
+ 4.20604E-010,4.20604E-010,4.22645E-010
+ 1.00000E+000,0.00000E+000,0.00000E+000
+ 1.00000E+000,0.00000E+000,0.00000E+000
+ 0.00000E+000,0.00000E+000,0.00000E+000
+ 0.00000E+000,0.00000E+000,0.00000E+000
+ 68.18,    3.220100e-04,    1.361500e-10,    1.000000e-08,    0.8
+ 0.8,    1.11722,    0.123946,    0,    0
*
* Gate Oxide Thickness is 226 Angstroms
*
.endl slow

.lib fast
*
*MOSIS (31 stages)                  83.58  MHz
*PROCESS=hp	
*RUN=n43d
*WAFER=12
*Gate-oxide thickness= 218.0 angstroms 
*Geometries (W-drawn/L-drawn, units are um/um) of transistors measured were: 
* 1.8/1.2, 3.6/1.2, 10.8/1.2, 3.6/3.6, 3.6/10.8 
*Bias range to perform the extraction (Vdd)=5 volts 
*DATE=05-05-94
*
*NMOS PARAMETERS
*
.MODEL nmos NMOS LEVEL=13 VFB0=
+ -9.43634E-01,-9.96676E-02, 5.53878E-02
+  8.16333E-01,-1.29139E-25,-6.88098E-25
+  1.08880E+00, 6.15756E-02,-2.56217E-03
+  1.31584E-01, 6.65307E-02,-5.17248E-02
+ -1.57830E-03, 9.43462E-03, 7.28912E-03
+  5.58811E+02,3.96042E-001,4.71416E-001
+  7.81670E-02, 8.35192E-02,-4.06166E-02
+ -5.36514E-03, 2.25343E-01,-3.06604E-02
+  5.69692E+00,-2.30956E+00, 2.79858E+01
+ -2.55780E-03,-4.29895E-03, 1.08758E-04
+ -3.13429E-04,-8.57023E-04,-4.39425E-03
+ -1.97406E-03, 1.40989E-03, 1.68512E-02
+  6.12492E-04, 3.19654E-03,-2.04135E-03
+  6.38701E+02, 1.47283E+02,-1.32286E+02
+ -1.26427E+00, 1.06048E+01, 3.98428E+01
+  4.74379E+00, 2.47382E+01,-1.06739E+01
+  7.52596E-04, 2.04713E-02,-5.67812E-03
+ 2.18000E-002, 2.70000E+01, 5.00000E+00                                        
+ 4.70501E-010,4.70501E-010,3.75251E-010
+ 1.00000E+000,0.00000E+000,0.00000E+000
+ 1.00000E+000,0.00000E+000,0.00000E+000
+ 0.00000E+000,0.00000E+000,0.00000E+000
+ 0.00000E+000,0.00000E+000,0.00000E+000
+ 67.92,    3.289000e-04,    1.394000e-10,    1.000000e-08,    0.8
+ 0.8,    1.12737,    0.12519,    0,    0
*
* Gate Oxide Thickness is 218 Angstroms
*
.endl

