**************** Enviromental and Process Parameters *********************
* Need to define Sup before calling the library with a .lib
*

.opt DEFL=1.2u
**** Nominal Voltage, Room Temperature, Typical Process
.lib TT
.temp 25
.param Supply='Sup'
.MODEL nmos NMOS LEVEL=3 PHI=0.600000 TOX=2.3200E-08 XJ=0.200000U TPG=1
+ VTO=0.8099 DELTA=8.4340E-01 LD=2.0960E-07 KP=9.0719E-05
+ UO=609.5 THETA=6.4120E-02 RSH=5.4540E+01 GAMMA=0.6173
+ NSUB=2.5430E+16 NFS=5.4970E+12 VMAX=1.7510E+05 ETA=3.6970E-02
+ KAPPA=6.8600E-02 CGDO=4.6796E-10 CGSO=4.6796E-10
+ CGBO=3.9685E-10 CJ=3.0180E-04 MJ=1.1165 CJSW=1.385E-10
+ MJSW=0.12395 PB=0.800000
* Weff = Wdrawn - Delta_W
* The suggested Delta_W is 5.4880E-07
.MODEL pmos PMOS LEVEL=3 PHI=0.600000 TOX=2.3200E-08 XJ=0.200000U TPG=-1
+ VTO=-0.9404 DELTA=1.3330E+00 LD=8.2980E-08 KP=2.8712E-05
+ UO=192.9 THETA=1.1400E-01 RSH=9.9640E+01 GAMMA=0.4650
+ NSUB=1.4430E+16 NFS=5.2520E+12 VMAX=1.9900E+05 ETA=5.0680E-02
+ KAPPA=8.5120E+00 CGDO=1.8526E-10 CGSO=1.8526E-10
+ CGBO=3.8091E-10 CJ=5.0045E-04 MJ=0.5187 CJSW=1.6955E-10
+ MJSW=0.239906 PB=0.850000
* Weff = Wdrawn - Delta_W
* The suggested Delta_W is 4.9760E-07
.endl TT

*       SS    nl, pl, RCslo     Hi temp, lo supply voltage
.lib SS
.temp 125
.param Supply='0.9 * Sup'
.MODEL nmos NMOS LEVEL=3 PHI=0.600000 TOX=2.2600E-08 XJ=0.200000U TPG=1
+ VTO=0.8005 DELTA=9.0720E-01 LD=1.7010E-07 KP=8.9323E-05
+ UO=584.6 THETA=7.0460E-02 RSH=4.5070E+01 GAMMA=0.6200
+ NSUB=2.7030E+16 NFS=1.980E+12 VMAX=1.7430E+05 ETA=4.6830E-02
+ KAPPA=7.2610E-02 CGDO=3.8985E-10 CGSO=3.8985E-10
+ CGBO=4.0152E-10 CJ=3.2201E-04 MJ=1.1172 CJSW=1.3615E-10
+ MJSW=0.1239346 PB=0.800000
* Weff = Wdrawn - Delta_W
* The suggested Delta_W is 5.5980E-07
.MODEL pmos PMOS LEVEL=3 PHI=0.600000 TOX=2.2600E-08 XJ=0.200000U TPG=-1
+ VTO=-0.9620 DELTA=7.6480E-01 LD=6.1290E-09 KP=2.9245E-05
+ UO=191.4 THETA=1.2440E-01 RSH=8.2340E+01 GAMMA=0.5095
+ NSUB=1.8260E+16 NFS=3.460E+12 VMAX=3.9040E+05 ETA=8.7520E-02
+ KAPPA=9.9930E+00 CGDO=1.4047E-11 CGSO=1.4047E-11
+ CGBO=3.8967E-10 CJ=4.7520E-04 MJ=0.4998 CJSW=1.4153E-10
+ MJSW=0.191978 PB=0.850000
* Weff = Wdrawn - Delta_W
.endl SS

*       FF    nh, ph, RCfas     Lo temp, hi supply voltage
.lib FF
.temp 0
.param Supply='1.1 * Sup'
.MODEL nmos NMOS LEVEL=3 PHI=0.600000 TOX=2.1800E-08 XJ=0.200000U TPG=1
+ VTO=0.7810 DELTA=8.2240E-01 LD=1.9310E-07 KP=9.5532E-05
+ UO=603.1 THETA=7.6440E-02 RSH=5.5660E+01 GAMMA=0.6000
+ NSUB=2.7210E+16 NFS=1.9800E+12 VMAX=1.7840E+05 ETA=4.6270E-02
+ KAPPA=5.8030E-02 CGDO=4.5881E-10 CGSO=4.5881E-10
+ CGBO=3.9696E-10 CJ=3.2891E-04 MJ=1.1274 CJSW=1.1271E-10
+ MJSW=-0.331942 PB=0.800000
* Weff = Wdrawn - Delta_W
* The suggested Delta_W is 5.4000E-07
.MODEL pmos PMOS LEVEL=3 PHI=0.600000 TOX=2.1800E-08 XJ=0.200000U TPG=-1
+ VTO=-0.9561 DELTA=1.2810E+00 LD=4.7430E-08 KP=3.1189E-05
+ UO=196.9 THETA=1.3450E-01 RSH=9.5680E+01 GAMMA=0.4834
+ NSUB=1.7660E+16 NFS=3.460E+12 VMAX=2.2530E+05 ETA=8.2280E-02
+ KAPPA=8.8120E+00 CGDO=1.1269E-10 CGSO=1.1269E-10
+ CGBO=3.8810E-10 CJ=4.9310E-04 MJ=0.5168 CJSW=1.5387E-10
+ MJSW=0.213701 PB=0.850000
* Weff = Wdrawn - Delta_W
* The suggested Delta_W is 5.1200E-07
.endl FF

*       FS    nl, ph, RCtyp     Hi temp, lo supply voltage
*       nt, pt, RCtyp     med temp, nom supply voltage
.lib TM
.temp 70
.param Supply='Sup'
.MODEL nmos NMOS LEVEL=3 PHI=0.600000 TOX=2.3200E-08 XJ=0.200000U TPG=1
+ VTO=0.8099 DELTA=8.4340E-01 LD=2.0960E-07 KP=9.0719E-05
+ UO=609.5 THETA=6.4120E-02 RSH=5.4540E+01 GAMMA=0.6173
+ NSUB=2.5430E+16 NFS=5.4970E+12 VMAX=1.7510E+05 ETA=3.6970E-02
+ KAPPA=6.8600E-02 CGDO=4.6796E-10 CGSO=4.6796E-10
+ CGBO=3.9685E-10 CJ=3.0180E-04 MJ=1.1165 CJSW=1.385E-10
+ MJSW=0.12395 PB=0.800000
* Weff = Wdrawn - Delta_W
* The suggested Delta_W is 5.4880E-07
.MODEL pmos PMOS LEVEL=3 PHI=0.600000 TOX=2.3200E-08 XJ=0.200000U TPG=-1
+ VTO=-0.9404 DELTA=1.3330E+00 LD=8.2980E-08 KP=2.8712E-05
+ UO=192.9 THETA=1.1400E-01 RSH=9.9640E+01 GAMMA=0.4650
+ NSUB=1.4430E+16 NFS=5.2520E+12 VMAX=1.9900E+05 ETA=5.0680E-02
+ KAPPA=8.5120E+00 CGDO=1.8526E-10 CGSO=1.8526E-10
+ CGBO=3.8091E-10 CJ=5.0045E-04 MJ=0.5187 CJSW=1.6955E-10
+ MJSW=0.239906 PB=0.850000
* Weff = Wdrawn - Delta_W
* The suggested Delta_W is 4.9760E-07
.endl TM

*       nf, pf, RCfast     med temp, nom supply voltage
.lib FM
.temp 70
.param Supply='Sup'
.MODEL nmos NMOS LEVEL=3 PHI=0.600000 TOX=2.1800E-08 XJ=0.200000U TPG=1
+ VTO=0.7810 DELTA=8.2240E-01 LD=1.9310E-07 KP=9.5532E-05
+ UO=603.1 THETA=7.6440E-02 RSH=5.5660E+01 GAMMA=0.6000
+ NSUB=2.7210E+16 NFS=1.9800E+12 VMAX=1.7840E+05 ETA=4.6270E-02
+ KAPPA=5.8030E-02 CGDO=4.5881E-10 CGSO=4.5881E-10
+ CGBO=3.9696E-10 CJ=3.2891E-04 MJ=1.1274 CJSW=1.1271E-10
+ MJSW=-0.331942 PB=0.800000
* Weff = Wdrawn - Delta_W
* The suggested Delta_W is 5.4000E-07
.MODEL pmos PMOS LEVEL=3 PHI=0.600000 TOX=2.1800E-08 XJ=0.200000U TPG=-1
+ VTO=-0.9561 DELTA=1.2810E+00 LD=4.7430E-08 KP=3.1189E-05
+ UO=196.9 THETA=1.3450E-01 RSH=9.5680E+01 GAMMA=0.4834
+ NSUB=1.7660E+16 NFS=3.460E+12 VMAX=2.2530E+05 ETA=8.2280E-02
+ KAPPA=8.8120E+00 CGDO=1.1269E-10 CGSO=1.1269E-10
+ CGBO=3.8810E-10 CJ=4.9310E-04 MJ=0.5168 CJSW=1.5387E-10
+ MJSW=0.213701 PB=0.850000
* Weff = Wdrawn - Delta_W
* The suggested Delta_W is 5.1200E-07
.endl FM

*       ns, ps, RCslow     med temp, nom supply voltage
.lib SM
.temp 70
.param Supply='Sup'
.MODEL nmos NMOS LEVEL=3 PHI=0.600000 TOX=2.2600E-08 XJ=0.200000U TPG=1
+ VTO=0.8005 DELTA=9.0720E-01 LD=1.7010E-07 KP=8.9323E-05
+ UO=584.6 THETA=7.0460E-02 RSH=4.5070E+01 GAMMA=0.6200
+ NSUB=2.7030E+16 NFS=1.980E+12 VMAX=1.7430E+05 ETA=4.6830E-02
+ KAPPA=7.2610E-02 CGDO=3.8985E-10 CGSO=3.8985E-10
+ CGBO=4.0152E-10 CJ=3.2201E-04 MJ=1.1172 CJSW=1.3615E-10
+ MJSW=0.1239346 PB=0.800000
* Weff = Wdrawn - Delta_W
* The suggested Delta_W is 5.5980E-07
.MODEL pmos PMOS LEVEL=3 PHI=0.600000 TOX=2.2600E-08 XJ=0.200000U TPG=-1
+ VTO=-0.9620 DELTA=7.6480E-01 LD=6.1290E-09 KP=2.9245E-05
+ UO=191.4 THETA=1.2440E-01 RSH=8.2340E+01 GAMMA=0.5095
+ NSUB=1.8260E+16 NFS=3.460E+12 VMAX=3.9040E+05 ETA=8.7520E-02
+ KAPPA=9.9930E+00 CGDO=1.4047E-11 CGSO=1.4047E-11
+ CGBO=3.8967E-10 CJ=4.7520E-04 MJ=0.4998 CJSW=1.4153E-10
+ MJSW=0.191978 PB=0.850000
* Weff = Wdrawn - Delta_W
.endl SM
