
.lib typical
*PMOS PARAMETERS
*
.MODEL pmos PMOS LEVEL=13 VFB0=
+ -2.34604E-01, 6.19905E-02,-1.10455E-01
+  7.45422E-01, 7.75661E-25,-3.60618E-24
+  5.03959E-01,-1.14926E-01, 2.21300E-01
+ -1.15324E-02, 6.73531E-03, 2.64140E-02
+ -3.17290E-03, 2.19606E-02,-3.80774E-03
+  1.86163E+02,2.06546E-001,6.68162E-001
+  1.45777E-01, 3.88985E-02,-4.82811E-02
+ -1.00612E-02, 1.30553E-01,-2.29259E-02
+  9.40164E+00,-2.74971E+00, 2.98681E+00
+ -1.56508E-04,-8.91799E-04,-4.57574E-03
+  2.40221E-04,-7.75485E-04,-2.84480E-03
+  8.84178E-03,-2.53726E-03, 3.98777E-03
+ -1.04995E-03, 2.71427E-03, 8.04192E-03
+  1.92278E+02, 6.71309E+01,-4.89985E+00
+  8.59588E+00, 5.05667E-01, 8.89974E+00
+  4.20301E-01, 5.33143E+00,-9.64429E-01
+  4.64338E-04,-6.77982E-03, 1.77979E-03
+ 2.23000E-002, 2.70000E+01, 5.00000E+00                                        
+ 2.39877E-010,2.39877E-010,4.36244E-010
+ 1.00000E+000,0.00000E+000,0.00000E+000
+ 1.00000E+000,0.00000E+000,0.00000E+000
+ 0.00000E+000,0.00000E+000,0.00000E+000
+ 0.00000E+000,0.00000E+000,0.00000E+000
+ 121.5,    4.774400e-04,    1.569800e-10,    1.000000e-08,    0.85
+ 0.85,    0.494312,    0.227052,    0,    0
.endl typical

.lib slow
*
*PMOS PARAMETERS
*
.MODEL pmos PMOS LEVEL=13 VFB0=
+ -8.12751E-02,-1.38311E-01, 3.20145E-03
+  7.23910E-01, 0.00000E+00, 0.00000E+00
+  3.20594E-01, 1.54809E-01, 2.46566E-02
+ -5.76248E-02, 7.65865E-02,-2.87106E-02
+ -2.08971E-03, 1.93050E-02, 1.91312E-03
+  1.85505E+02,1.54644E-001,6.70011E-001
+  1.39870E-01, 4.35095E-02,-5.34281E-02
+ -9.82464E-03, 1.35578E-01,-2.94912E-02
+  9.33288E+00,-2.63686E+00, 2.93855E+00
+  1.62903E-03,-2.76752E-03,-4.32582E-03
+  5.98576E-04,-6.39980E-04,-3.52954E-03
+  8.12958E-03,-1.31370E-03, 3.36155E-03
+ -1.02184E-03, 1.45191E-03, 8.96961E-03
+  1.83736E+02, 7.84567E+01,-2.41509E+01
+  7.30796E+00, 1.87042E+00, 7.18059E+00
+  7.77359E-01, 4.97765E+00,-2.77521E+00
+  8.37593E-04,-7.27540E-03,-1.56162E-03
+ 2.26000E-002, 2.70000E+01, 5.00000E+00                                        
+ 1.77215E-010,1.77215E-010,4.36066E-010
+ 1.00000E+000,0.00000E+000,0.00000E+000
+ 1.00000E+000,0.00000E+000,0.00000E+000
+ 0.00000E+000,0.00000E+000,0.00000E+000
+ 0.00000E+000,0.00000E+000,0.00000E+000
+ 105.93,    4.752000e-04,    1.415300e-10,    1.000000e-08,    0.85
+ 0.85,    0.499761,    0.191978,    0,    0
*
.endl slow

.lib fast
*PMOS PARAMETERS
*
.MODEL pmos PMOS LEVEL=13 VFB0=
+ -9.01675E-02,-1.35231E-01,-9.86095E-02
+  7.50430E-01, 0.00000E+00,-3.45941E-24
+  2.09469E-01, 1.90704E-01, 2.09530E-01
+ -9.68999E-02, 9.58226E-02, 2.74780E-02
+ -7.85453E-03, 2.55944E-02,-4.61301E-03
+  1.85358E+02,2.48652E-001,7.08916E-001
+  1.42311E-01, 4.91117E-02,-5.19897E-02
+ -8.57978E-03, 1.15576E-01,-2.39556E-02
+  9.17853E+00,-2.74802E+00, 3.28939E+00
+ -4.02274E-04,-1.51622E-03,-2.75653E-03
+  1.38933E-03,-1.79323E-03,-2.56345E-03
+  8.24763E-03,-2.38328E-03, 4.73752E-03
+ -7.86069E-04, 3.05013E-03, 5.01521E-03
+  1.79362E+02, 7.39432E+01,-6.19072E+00
+  6.79642E+00, 2.36910E+00, 7.64112E+00
+ -2.31426E-01, 4.79049E+00,-6.59595E-01
+  4.62958E-04,-6.78960E-03, 1.82168E-03
+ 2.18000E-002, 2.70000E+01, 5.00000E+00                                        
+ 2.95401E-010,2.95401E-010,4.50431E-010
+ 1.00000E+000,0.00000E+000,0.00000E+000
+ 1.00000E+000,0.00000E+000,0.00000E+000
+ 0.00000E+000,0.00000E+000,0.00000E+000
+ 0.00000E+000,0.00000E+000,0.00000E+000
+ 109.97,    4.931000e-04,    1.538700e-10,    1.000000e-08,    0.85
+ 0.85,    0.5167,    0.2137,    0,    0
.endl fast

