.MODEL NMOS NMOS 
+ CGBO=3.9026e-10
+ CGDO=3.2121e-10
+ CGSO=3.2121e-10
+ CJ=1.1206e-04
+ CJSW=4.0371e-10
+ DELTA=5.3980e+00
+ GAMMA=5.0868e-01
+ KP=5.0811e-05
+ LAMBDA=3.7258e-02
+ LD=2.2136e-07
+ LEVEL=2.0000e+00
+ MJ=7.4692e-01
+ MJSW=2.4160e-01
+ NEFF=9.5238e-02
+ NFS=2.1137e+12
+ NSUB=5.6752e+15
+ PB=7.4048e-01
+ PHI=6.4286e-01
+ RSH=1.5225e+01
+ TOX=4.0890e-08
+ TPG=1.0000e+00
+ UCRIT=6.1823e+04
+ UEXP=1.4237e-01
+ UO=6.0035e+02
+ VMAX=5.7936e+04
+ VTO=8.2803e-01
+ XJ=2.0000e-01
