.MODEL PMOS PMOS 
+ CGBO=4.0082e-10
+ CGDO=3.8208e-10
+ CGSO=3.8208e-10
+ CJ=3.2806e-04
+ CJSW=2.9225e-10
+ DELTA=4.8295e+00
+ GAMMA=6.6232e-01
+ KP=1.6858e-05
+ LAMBDA=5.1815e-02
+ LD=2.6617e-07
+ LEVEL=2.0000e+00
+ MJ=5.8496e-01
+ MJSW=3.0695e-01
+ NEFF=1.1905e-01
+ NFS=8.1996e+11
+ NSUB=9.8408e+15
+ PB=8.2857e-01
+ PHI=6.4286e-01
+ RSH=2.9857e+01
+ TOX=4.0890e-08
+ TPG=-1.0000e+00
+ UCRIT=9.7886e+04
+ UEXP=2.8733e-01
+ UO=1.9955e+02
+ VMAX=9.9990e+05
+ VTO=-9.4151e-01
+ XJ=2.0000e-01
